
OS:Version,
  {1b591740-5507-4e80-92c0-574593a0e5ac}, !- Handle
  3.5.1;                                  !- Version Identifier

OS:Facility,
  {1591b118-6e00-47ee-93cb-e204b243e234}; !- Handle

OS:Site,
  {3c29f754-22d8-495b-9db6-f1e87b0d80d0}, !- Handle
  Buffalo Niagara Intl Ap_NY_USA,         !- Name
  42.8212877788989,                       !- Latitude {deg}
  -78.8514887230596,                      !- Longitude {deg}
  -5,                                     !- Time Zone {hr}
  53.6448,                                !- Elevation {m}
  City;                                   !- Terrain

OS:SimulationControl,
  {bcb81a29-2559-4bac-8c19-d69a6faf1365}, !- Handle
  ,                                       !- Do Zone Sizing Calculation
  ,                                       !- Do System Sizing Calculation
  ,                                       !- Do Plant Sizing Calculation
  No,                                     !- Run Simulation for Sizing Periods
  Yes,                                    !- Run Simulation for Weather File Run Periods
  ,                                       !- Loads Convergence Tolerance Value {W}
  ,                                       !- Temperature Convergence Tolerance Value {deltaC}
  ,                                       !- Solar Distribution
  ,                                       !- Maximum Number of Warmup Days
  ,                                       !- Minimum Number of Warmup Days
  No,                                     !- Do HVAC Sizing Simulation for Sizing Periods
  1;                                      !- Maximum Number of HVAC Sizing Simulation Passes

OS:Sizing:Parameters,
  {4309e454-5984-4096-993e-42d344293b3f}, !- Handle
  1.25,                                   !- Heating Sizing Factor
  1.15;                                   !- Cooling Sizing Factor

OS:Timestep,
  {039d3cd3-c82d-49a6-b181-ac9c053756f3}, !- Handle
  1;                                      !- Number of Timesteps per Hour

OS:ShadowCalculation,
  {97d91b01-852a-49fe-8860-3e356f12ec40}, !- Handle
  PolygonClipping,                        !- Shading Calculation Method
  ,                                       !- Shading Calculation Update Frequency Method
  20,                                     !- Shading Calculation Update Frequency
  15000,                                  !- Maximum Figures in Shadow Overlap Calculations
  ,                                       !- Polygon Clipping Algorithm
  512,                                    !- Pixel Counting Resolution
  ,                                       !- Sky Diffuse Modeling Algorithm
  No,                                     !- Output External Shading Calculation Results
  No,                                     !- Disable Self-Shading Within Shading Zone Groups
  No;                                     !- Disable Self-Shading From Shading Zone Groups to Other Zones

OS:HeatBalanceAlgorithm,
  {597b69fe-5e2b-4d5c-93f3-bef88b762f2a}, !- Handle
  ConductionTransferFunction,             !- Algorithm
  200;                                    !- Surface Temperature Upper Limit {C}

OS:RunPeriod,
  {9dadaa9b-996b-43de-9cd7-1f2cd6f693ef}, !- Handle
  Run Period 1,                           !- Name
  1,                                      !- Begin Month
  1,                                      !- Begin Day of Month
  12,                                     !- End Month
  31,                                     !- End Day of Month
  ,                                       !- Use Weather File Holidays and Special Days
  ,                                       !- Use Weather File Daylight Saving Period
  ,                                       !- Apply Weekend Holiday Rule
  ,                                       !- Use Weather File Rain Indicators
  ,                                       !- Use Weather File Snow Indicators
  ;                                       !- Number of Times Runperiod to be Repeated

OS:LifeCycleCost:Parameters,
  {f59521fb-a259-41b3-ae65-7edef372df8a}, !- Handle
  ,                                       !- Analysis Type
  ,                                       !- Discounting Convention
  ,                                       !- Inflation Approach
  ,                                       !- Real Discount Rate
  ,                                       !- Nominal Discount Rate
  ,                                       !- Inflation
  ,                                       !- Base Date Month
  ,                                       !- Base Date Year
  ,                                       !- Service Date Month
  ,                                       !- Service Date Year
  ;                                       !- Length of Study Period in Years

OS:YearDescription,
  {cf88b502-ffc5-40d1-bf12-1cea11bfb92f}, !- Handle
  2017,                                   !- Calendar Year
  ,                                       !- Day of Week for Start Day
  ;                                       !- Is Leap Year

OS:WeatherFile,
  {4409b43a-464b-4c2e-921a-d78d8d1e16c8}, !- Handle
  Buffalo Niagara Intl Ap,                !- City
  NY,                                     !- State Province Region
  USA,                                    !- Country
  TMY3,                                   !- Data Source
  725280,                                 !- WMO Number
  42.93,                                  !- Latitude {deg}
  -78.73,                                 !- Longitude {deg}
  -5,                                     !- Time Zone {hr}
  215,                                    !- Elevation {m}
  /Users/nlong/working/dissertation-analysis/dc/analysis/esbe/activity_3/coincident/weather/USA_NY_Buffalo-Greater.Buffalo.Intl.AP.725280_TMY3.epw, !- Url
  ;                                       !- Checksum

OS:Site:WaterMainsTemperature,
  {94ed8811-b842-4257-a473-b449fe8cb104}, !- Handle
  Correlation,                            !- Calculation Method
  ,                                       !- Temperature Schedule Name
  8.96666666666667,                       !- Annual Average Outdoor Air Temperature {C}
  26.2;                                   !- Maximum Difference In Monthly Average Outdoor Air Temperatures {deltaC}

OS:SizingPeriod:DesignDay,
  {e52361ee-f8aa-48b7-bcc4-d4671485b987}, !- Handle
  Buffalo Niagara Intl Ap Ann Clg .4% Condns DB=>MWB 1, !- Name
  30.3,                                   !- Maximum Dry-Bulb Temperature {C}
  9.3,                                    !- Daily Dry-Bulb Temperature Range {deltaC}
  98769,                                  !- Barometric Pressure {Pa}
  5.7,                                    !- Wind Speed {m/s}
  240,                                    !- Wind Direction {deg}
  ,                                       !- Sky Clearness
  No,                                     !- Rain Indicator
  No,                                     !- Snow Indicator
  21,                                     !- Day of Month
  7,                                      !- Month
  SummerDesignDay,                        !- Day Type
  No,                                     !- Daylight Saving Time Indicator
  Wetbulb,                                !- Humidity Condition Type
  ,                                       !- Humidity Condition Day Schedule Name
  21.8,                                   !- Wetbulb or DewPoint at Maximum Dry-Bulb {C}
  ,                                       !- Humidity Ratio at Maximum Dry-Bulb {kgWater/kgDryAir}
  ,                                       !- Enthalpy at Maximum Dry-Bulb {J/kg}
  DefaultMultipliers,                     !- Dry-Bulb Temperature Range Modifier Type
  ,                                       !- Dry-Bulb Temperature Range Modifier Day Schedule Name
  ASHRAETau,                              !- Solar Model Indicator
  ,                                       !- Beam Solar Day Schedule Name
  ,                                       !- Diffuse Solar Day Schedule Name
  0.462,                                  !- ASHRAE Clear Sky Optical Depth for Beam Irradiance {dimensionless}
  2.001;                                  !- ASHRAE Clear Sky Optical Depth for Diffuse Irradiance {dimensionless}

OS:SizingPeriod:DesignDay,
  {1f050067-6c02-4983-9d31-bc58664a6f20}, !- Handle
  Buffalo Niagara Intl Ap Ann Clg .4% Condns WB=>MDB 1, !- Name
  27.8,                                   !- Maximum Dry-Bulb Temperature {C}
  9.3,                                    !- Daily Dry-Bulb Temperature Range {deltaC}
  98769,                                  !- Barometric Pressure {Pa}
  5.7,                                    !- Wind Speed {m/s}
  240,                                    !- Wind Direction {deg}
  ,                                       !- Sky Clearness
  No,                                     !- Rain Indicator
  No,                                     !- Snow Indicator
  21,                                     !- Day of Month
  7,                                      !- Month
  SummerDesignDay,                        !- Day Type
  No,                                     !- Daylight Saving Time Indicator
  Wetbulb,                                !- Humidity Condition Type
  ,                                       !- Humidity Condition Day Schedule Name
  23.8,                                   !- Wetbulb or DewPoint at Maximum Dry-Bulb {C}
  ,                                       !- Humidity Ratio at Maximum Dry-Bulb {kgWater/kgDryAir}
  ,                                       !- Enthalpy at Maximum Dry-Bulb {J/kg}
  DefaultMultipliers,                     !- Dry-Bulb Temperature Range Modifier Type
  ,                                       !- Dry-Bulb Temperature Range Modifier Day Schedule Name
  ASHRAETau,                              !- Solar Model Indicator
  ,                                       !- Beam Solar Day Schedule Name
  ,                                       !- Diffuse Solar Day Schedule Name
  0.462,                                  !- ASHRAE Clear Sky Optical Depth for Beam Irradiance {dimensionless}
  2.001;                                  !- ASHRAE Clear Sky Optical Depth for Diffuse Irradiance {dimensionless}

OS:SizingPeriod:DesignDay,
  {b4e8ad50-c596-46f3-8918-b426f20e98e7}, !- Handle
  Buffalo Niagara Intl Ap Ann Htg 99.6% Condns DB 1, !- Name
  -16.3,                                  !- Maximum Dry-Bulb Temperature {C}
  0,                                      !- Daily Dry-Bulb Temperature Range {deltaC}
  98769,                                  !- Barometric Pressure {Pa}
  5.1,                                    !- Wind Speed {m/s}
  270,                                    !- Wind Direction {deg}
  0,                                      !- Sky Clearness
  No,                                     !- Rain Indicator
  No,                                     !- Snow Indicator
  21,                                     !- Day of Month
  1,                                      !- Month
  WinterDesignDay,                        !- Day Type
  No,                                     !- Daylight Saving Time Indicator
  Wetbulb,                                !- Humidity Condition Type
  ,                                       !- Humidity Condition Day Schedule Name
  -16.3,                                  !- Wetbulb or DewPoint at Maximum Dry-Bulb {C}
  ,                                       !- Humidity Ratio at Maximum Dry-Bulb {kgWater/kgDryAir}
  ,                                       !- Enthalpy at Maximum Dry-Bulb {J/kg}
  DefaultMultipliers,                     !- Dry-Bulb Temperature Range Modifier Type
  ,                                       !- Dry-Bulb Temperature Range Modifier Day Schedule Name
  ASHRAEClearSky;                         !- Solar Model Indicator

OS:ClimateZones,
  {f550011a-e159-4872-a5ea-82d95984abf7}, !- Handle
  ASHRAE,                                 !- Climate Zone Institution Name 1
  ANSI/ASHRAE Standard 169,               !- Climate Zone Document Name 1
  2006,                                   !- Climate Zone Document Year 1
  6A;                                     !- Climate Zone Value 1

OS:Rendering:Color,
  {cb036097-cc2a-4570-b615-bd1560e9d9e2}, !- Handle
  Office WholeBuilding - Sm Office,       !- Name
  120,                                    !- Rendering Red Value
  230,                                    !- Rendering Green Value
  199;                                    !- Rendering Blue Value

OS:RunPeriodControl:DaylightSavingTime,
  {48369230-8b18-4903-bf9e-aef5e5fe29a3}, !- Handle
  2nd Sunday in March,                    !- Start Date
  1st Sunday in November;                 !- End Date

OS:People:Definition,
  {89a71560-07eb-4c38-b9ec-794ae7bd223b}, !- Handle
  Office WholeBuilding - Sm Office People Definition, !- Name
  People/Area,                            !- Number of People Calculation Method
  ,                                       !- Number of People {people}
  0.0602778983335744,                     !- People per Space Floor Area {person/m2}
  ,                                       !- Space Floor Area per Person {m2/person}
  0.3,                                    !- Fraction Radiant
  ,                                       !- Sensible Heat Fraction
  ,                                       !- Carbon Dioxide Generation Rate {m3/s-W}
  Yes,                                    !- Enable ASHRAE 55 Comfort Warnings
  ZoneAveraged,                           !- Mean Radiant Temperature Calculation Type
  Fanger;                                 !- Thermal Comfort Model Type 1

OS:Schedule:Ruleset,
  {9b96a842-48e0-470c-b293-d991866968c5}, !- Handle
  Clothing Schedule,                      !- Name
  {cdabe6af-8890-4f5e-93a7-245a6d577e7d}, !- Schedule Type Limits Name
  {2e007681-049e-4fc9-942a-7254ed327e18}; !- Default Day Schedule Name

OS:Schedule:Day,
  {2e007681-049e-4fc9-942a-7254ed327e18}, !- Handle
  Clothing Schedule Default Winter Clothes, !- Name
  {cdabe6af-8890-4f5e-93a7-245a6d577e7d}, !- Schedule Type Limits Name
  ,                                       !- Interpolate to Timestep
  24,                                     !- Hour 1
  0,                                      !- Minute 1
  1;                                      !- Value Until Time 1

OS:Schedule:Rule,
  {421def64-eceb-4472-ab3b-48bb5c003121}, !- Handle
  Schedule Rule 1,                        !- Name
  {9b96a842-48e0-470c-b293-d991866968c5}, !- Schedule Ruleset Name
  0,                                      !- Rule Order
  {1bde8996-0e35-4d3f-b21b-9afc7d9ecf10}, !- Day Schedule Name
  ,                                       !- Apply Sunday
  ,                                       !- Apply Monday
  ,                                       !- Apply Tuesday
  ,                                       !- Apply Wednesday
  ,                                       !- Apply Thursday
  ,                                       !- Apply Friday
  ,                                       !- Apply Saturday
  DateRange,                              !- Date Specification Type
  5,                                      !- Start Month
  1,                                      !- Start Day
  9,                                      !- End Month
  30;                                     !- End Day

OS:Schedule:Day,
  {1bde8996-0e35-4d3f-b21b-9afc7d9ecf10}, !- Handle
  Clothing Schedule Summer Clothes,       !- Name
  {cdabe6af-8890-4f5e-93a7-245a6d577e7d}, !- Schedule Type Limits Name
  ,                                       !- Interpolate to Timestep
  24,                                     !- Hour 1
  0,                                      !- Minute 1
  0.5;                                    !- Value Until Time 1

OS:ScheduleTypeLimits,
  {cdabe6af-8890-4f5e-93a7-245a6d577e7d}, !- Handle
  ClothingInsulation,                     !- Name
  0,                                      !- Lower Limit Value
  ,                                       !- Upper Limit Value
  Continuous,                             !- Numeric Type
  ClothingInsulation;                     !- Unit Type

OS:Schedule:Ruleset,
  {a96ba04a-4b0a-4e0b-9fd0-4d083bab7d15}, !- Handle
  Air Velocity Schedule,                  !- Name
  {6c71d55f-1283-41f6-a2c6-f727455ed2b5}, !- Schedule Type Limits Name
  {cb8cfdcd-34b0-4f13-b486-09ca61c1dcad}; !- Default Day Schedule Name

OS:Schedule:Day,
  {cb8cfdcd-34b0-4f13-b486-09ca61c1dcad}, !- Handle
  Air Velocity Schedule Default,          !- Name
  {6c71d55f-1283-41f6-a2c6-f727455ed2b5}, !- Schedule Type Limits Name
  ,                                       !- Interpolate to Timestep
  24,                                     !- Hour 1
  0,                                      !- Minute 1
  0.2;                                    !- Value Until Time 1

OS:ScheduleTypeLimits,
  {6c71d55f-1283-41f6-a2c6-f727455ed2b5}, !- Handle
  Velocity,                               !- Name
  0,                                      !- Lower Limit Value
  ,                                       !- Upper Limit Value
  Continuous,                             !- Numeric Type
  Velocity;                               !- Unit Type

OS:Schedule:Ruleset,
  {9c4c2b93-3f8c-4777-8038-9d51788e1cf0}, !- Handle
  Work Efficiency Schedule,               !- Name
  {096ab56f-4cd8-49b9-a4db-480655a3e04d}, !- Schedule Type Limits Name
  {92943b6c-e98d-4541-bb81-cd108bb805c7}; !- Default Day Schedule Name

OS:Schedule:Day,
  {92943b6c-e98d-4541-bb81-cd108bb805c7}, !- Handle
  Work Efficiency Schedule Default,       !- Name
  {096ab56f-4cd8-49b9-a4db-480655a3e04d}, !- Schedule Type Limits Name
  ,                                       !- Interpolate to Timestep
  24,                                     !- Hour 1
  0,                                      !- Minute 1
  0;                                      !- Value Until Time 1

OS:ScheduleTypeLimits,
  {096ab56f-4cd8-49b9-a4db-480655a3e04d}, !- Handle
  Fractional,                             !- Name
  0,                                      !- Lower Limit Value
  1,                                      !- Upper Limit Value
  Continuous;                             !- Numeric Type

OS:Lights:Definition,
  {c701c981-3b67-4ffc-bbc1-8cb725e3ae36}, !- Handle
  Office WholeBuilding - Sm Office Lights Definition, !- Name
  Watts/Area,                             !- Design Level Calculation Method
  ,                                       !- Lighting Level {W}
  8.82640654170197,                       !- Watts per Space Floor Area {W/m2}
  ,                                       !- Watts per Person {W/person}
  0.7,                                    !- Fraction Radiant
  0.2,                                    !- Fraction Visible
  0;                                      !- Return Air Fraction

OS:AdditionalProperties,
  {09457cbb-864d-44a8-b45b-71073d008978}, !- Handle
  {c701c981-3b67-4ffc-bbc1-8cb725e3ae36}, !- Object Name
  lpd_fraction_linear_fluorescent,        !- Feature Name 1
  Double,                                 !- Feature Data Type 1
  1;                                      !- Feature Value 1

OS:ElectricEquipment:Definition,
  {41699c18-209d-4001-951e-39decd46a6ff}, !- Handle
  Office WholeBuilding - Sm Office Elec Equip Definition, !- Name
  Watts/Area,                             !- Design Level Calculation Method
  ,                                       !- Design Level {W}
  6.78126356252712,                       !- Watts per Space Floor Area {W/m2}
  ,                                       !- Watts per Person {W/person}
  0,                                      !- Fraction Latent
  0,                                      !- Fraction Radiant
  0;                                      !- Fraction Lost

OS:DesignSpecification:OutdoorAir,
  {e1834071-25f2-41d0-94cd-eb4ee2300b71}, !- Handle
  Office WholeBuilding - Sm Office Ventilation, !- Name
  Sum,                                    !- Outdoor Air Method
  ,                                       !- Outdoor Air Flow per Person {m3/s-person}
  0.0004318,                              !- Outdoor Air Flow per Floor Area {m3/s-m2}
  ,                                       !- Outdoor Air Flow Rate {m3/s}
  ,                                       !- Outdoor Air Flow Air Changes per Hour {1/hr}
  ;                                       !- Outdoor Air Flow Rate Fraction Schedule Name

OS:DefaultScheduleSet,
  {b45f95ea-ea88-4b0a-aab7-2444488b1dbd}, !- Handle
  Office WholeBuilding - Sm Office Schedule Set, !- Name
  ,                                       !- Hours of Operation Schedule Name
  {785cf4b7-1927-4eec-8c6d-98012836e31d}, !- Number of People Schedule Name
  {bd8aea2f-0404-4ec4-9947-079292ddca95}, !- People Activity Level Schedule Name
  {5646268d-6e87-4f65-b68e-f5adba70a837}, !- Lighting Schedule Name
  {30a1e022-c0ae-473f-8997-447dcf661f6f}, !- Electric Equipment Schedule Name
  ,                                       !- Gas Equipment Schedule Name
  ,                                       !- Hot Water Equipment Schedule Name
  {671fae22-1f04-4150-8d2b-5ed3af65fb1f}, !- Infiltration Schedule Name
  ,                                       !- Steam Equipment Schedule Name
  ;                                       !- Other Equipment Schedule Name

OS:Schedule:Ruleset,
  {785cf4b7-1927-4eec-8c6d-98012836e31d}, !- Handle
  OfficeSmall BLDG_OCC_SCH,               !- Name
  {096ab56f-4cd8-49b9-a4db-480655a3e04d}, !- Schedule Type Limits Name
  {7c4713f5-fb17-4789-9eac-6a8e15a8fff4}, !- Default Day Schedule Name
  {f143d337-870d-47fc-b6d0-21748c51c3b0}, !- Summer Design Day Schedule Name
  {19aa8274-d923-4fdc-a672-23e3eacb49e7}; !- Winter Design Day Schedule Name

OS:Schedule:Day,
  {7c4713f5-fb17-4789-9eac-6a8e15a8fff4}, !- Handle
  OfficeSmall BLDG_OCC_SCH Default,       !- Name
  {096ab56f-4cd8-49b9-a4db-480655a3e04d}, !- Schedule Type Limits Name
  Yes,                                    !- Interpolate to Timestep
  9,                                      !- Hour 1
  0,                                      !- Minute 1
  0,                                      !- Value Until Time 1
  24,                                     !- Hour 2
  0,                                      !- Minute 2
  0;                                      !- Value Until Time 2

OS:Schedule:Day,
  {19aa8274-d923-4fdc-a672-23e3eacb49e7}, !- Handle
  OfficeSmall BLDG_OCC_SCH Winter Design Day, !- Name
  {096ab56f-4cd8-49b9-a4db-480655a3e04d}, !- Schedule Type Limits Name
  ,                                       !- Interpolate to Timestep
  24,                                     !- Hour 1
  0,                                      !- Minute 1
  0;                                      !- Value Until Time 1

OS:Schedule:Day,
  {f143d337-870d-47fc-b6d0-21748c51c3b0}, !- Handle
  OfficeSmall BLDG_OCC_SCH Summer Design Day, !- Name
  {096ab56f-4cd8-49b9-a4db-480655a3e04d}, !- Schedule Type Limits Name
  ,                                       !- Interpolate to Timestep
  24,                                     !- Hour 1
  0,                                      !- Minute 1
  1;                                      !- Value Until Time 1

OS:Schedule:Rule,
  {5e037ee4-cac4-4d6c-8ff5-27994df4a3ee}, !- Handle
  Schedule Rule 2,                        !- Name
  {785cf4b7-1927-4eec-8c6d-98012836e31d}, !- Schedule Ruleset Name
  0,                                      !- Rule Order
  {ab4d4eaf-1f8e-46fc-9eab-4e33726efbca}, !- Day Schedule Name
  ,                                       !- Apply Sunday
  Yes,                                    !- Apply Monday
  Yes,                                    !- Apply Tuesday
  Yes,                                    !- Apply Wednesday
  Yes,                                    !- Apply Thursday
  Yes,                                    !- Apply Friday
  ,                                       !- Apply Saturday
  DateRange,                              !- Date Specification Type
  1,                                      !- Start Month
  1,                                      !- Start Day
  12,                                     !- End Month
  31;                                     !- End Day

OS:Schedule:Day,
  {ab4d4eaf-1f8e-46fc-9eab-4e33726efbca}, !- Handle
  OfficeSmall BLDG_OCC_SCH Wkdy Day,      !- Name
  {096ab56f-4cd8-49b9-a4db-480655a3e04d}, !- Schedule Type Limits Name
  Yes,                                    !- Interpolate to Timestep
  6,                                      !- Hour 1
  30,                                     !- Minute 1
  0,                                      !- Value Until Time 1
  7,                                      !- Hour 2
  30,                                     !- Minute 2
  0.11,                                   !- Value Until Time 2
  8,                                      !- Hour 3
  30,                                     !- Minute 3
  0.21,                                   !- Value Until Time 3
  9,                                      !- Hour 4
  30,                                     !- Minute 4
  1,                                      !- Value Until Time 4
  11,                                     !- Hour 5
  30,                                     !- Minute 5
  1,                                      !- Value Until Time 5
  12,                                     !- Hour 6
  30,                                     !- Minute 6
  0.53,                                   !- Value Until Time 6
  13,                                     !- Hour 7
  30,                                     !- Minute 7
  1,                                      !- Value Until Time 7
  15,                                     !- Hour 8
  30,                                     !- Minute 8
  1,                                      !- Value Until Time 8
  16,                                     !- Hour 9
  30,                                     !- Minute 9
  0.32,                                   !- Value Until Time 9
  17,                                     !- Hour 10
  30,                                     !- Minute 10
  0.11,                                   !- Value Until Time 10
  20,                                     !- Hour 11
  30,                                     !- Minute 11
  0.11,                                   !- Value Until Time 11
  21,                                     !- Hour 12
  30,                                     !- Minute 12
  0.05,                                   !- Value Until Time 12
  22,                                     !- Hour 13
  30,                                     !- Minute 13
  0,                                      !- Value Until Time 13
  24,                                     !- Hour 14
  0,                                      !- Minute 14
  0;                                      !- Value Until Time 14

OS:Schedule:Ruleset,
  {bd8aea2f-0404-4ec4-9947-079292ddca95}, !- Handle
  OfficeSmall ACTIVITY_SCH,               !- Name
  {a34ce5a8-9134-47ff-9639-82070664dfe5}, !- Schedule Type Limits Name
  {005dab99-8b7f-47e0-9cc3-0ec5887c2454}, !- Default Day Schedule Name
  {2be73033-1d8a-408b-9aeb-d3dca354a79c}, !- Summer Design Day Schedule Name
  {09343754-a791-4940-ba27-3dea8ba4c0b4}; !- Winter Design Day Schedule Name

OS:Schedule:Day,
  {005dab99-8b7f-47e0-9cc3-0ec5887c2454}, !- Handle
  OfficeSmall ACTIVITY_SCH Default,       !- Name
  {a34ce5a8-9134-47ff-9639-82070664dfe5}, !- Schedule Type Limits Name
  Yes,                                    !- Interpolate to Timestep
  24,                                     !- Hour 1
  0,                                      !- Minute 1
  120;                                    !- Value Until Time 1

OS:Schedule:Day,
  {09343754-a791-4940-ba27-3dea8ba4c0b4}, !- Handle
  OfficeSmall ACTIVITY_SCH Winter Design Day, !- Name
  {a34ce5a8-9134-47ff-9639-82070664dfe5}, !- Schedule Type Limits Name
  ,                                       !- Interpolate to Timestep
  24,                                     !- Hour 1
  0,                                      !- Minute 1
  120;                                    !- Value Until Time 1

OS:Schedule:Day,
  {2be73033-1d8a-408b-9aeb-d3dca354a79c}, !- Handle
  OfficeSmall ACTIVITY_SCH Summer Design Day, !- Name
  {a34ce5a8-9134-47ff-9639-82070664dfe5}, !- Schedule Type Limits Name
  ,                                       !- Interpolate to Timestep
  24,                                     !- Hour 1
  0,                                      !- Minute 1
  120;                                    !- Value Until Time 1

OS:ScheduleTypeLimits,
  {a34ce5a8-9134-47ff-9639-82070664dfe5}, !- Handle
  ActivityLevel,                          !- Name
  0,                                      !- Lower Limit Value
  ,                                       !- Upper Limit Value
  Continuous,                             !- Numeric Type
  ActivityLevel;                          !- Unit Type

OS:Schedule:Ruleset,
  {5646268d-6e87-4f65-b68e-f5adba70a837}, !- Handle
  OfficeSmall BLDG_LIGHT_SCH_2013,        !- Name
  {096ab56f-4cd8-49b9-a4db-480655a3e04d}, !- Schedule Type Limits Name
  {273d3735-f185-4294-b894-90781b331e3c}, !- Default Day Schedule Name
  {073fd8b1-bca4-4829-86dd-e752e7f68482}, !- Summer Design Day Schedule Name
  {1be02586-8d88-4c18-b5d6-d95ef903cbfc}; !- Winter Design Day Schedule Name

OS:Schedule:Day,
  {273d3735-f185-4294-b894-90781b331e3c}, !- Handle
  OfficeSmall BLDG_LIGHT_SCH_2013 Default, !- Name
  {096ab56f-4cd8-49b9-a4db-480655a3e04d}, !- Schedule Type Limits Name
  Yes,                                    !- Interpolate to Timestep
  5,                                      !- Hour 1
  30,                                     !- Minute 1
  0.18,                                   !- Value Until Time 1
  6,                                      !- Hour 2
  30,                                     !- Minute 2
  0.23,                                   !- Value Until Time 2
  7,                                      !- Hour 3
  30,                                     !- Minute 3