
OS:Version,
  {bc4470bf-f52f-43c3-917a-e38035f996ed}, !- Handle
  3.5.1;                                  !- Version Identifier

OS:Facility,
  {702f73be-e4ca-4089-b330-b2de7e13ea28}; !- Handle

OS:LifeCycleCost:Parameters,
  {bc41928c-f643-4368-be1f-07099fea5d72}, !- Handle
  ,                                       !- Analysis Type
  ,                                       !- Discounting Convention
  ,                                       !- Inflation Approach
  ,                                       !- Real Discount Rate
  ,                                       !- Nominal Discount Rate
  ,                                       !- Inflation
  ,                                       !- Base Date Month
  ,                                       !- Base Date Year
  ,                                       !- Service Date Month
  ,                                       !- Service Date Year
  ;                                       !- Length of Study Period in Years

OS:SpaceType,
  {9e96ee2c-31a0-4d44-bbc5-f4e1f5f63f11}, !- Handle
  Space Type 3,                           !- Name
  ,                                       !- Default Construction Set Name
  ,                                       !- Default Schedule Set Name
  ,                                       !- Group Rendering Name
  ,                                       !- Design Specification Outdoor Air Object Name
  ,                                       !- Standards Template
  Single-Family Detached,                 !- Standards Building Type
  living space 1;                         !- Standards Space Type

OS:SpaceType,
  {491571ed-98c5-41c6-af78-e0974448e9c3}, !- Handle
  Space Type 2,                           !- Name
  ,                                       !- Default Construction Set Name
  ,                                       !- Default Schedule Set Name
  ,                                       !- Group Rendering Name
  ,                                       !- Design Specification Outdoor Air Object Name
  ,                                       !- Standards Template
  ,                                       !- Standards Building Type
  attic - vented 1;                       !- Standards Space Type

OS:SpaceType,
  {93717e92-2dca-47cd-b069-ad6c871897f4}, !- Handle
  Space Type 1,                           !- Name
  ,                                       !- Default Construction Set Name
  ,                                       !- Default Schedule Set Name
  ,                                       !- Group Rendering Name
  ,                                       !- Design Specification Outdoor Air Object Name
  ,                                       !- Standards Template
  ,                                       !- Standards Building Type
  crawlspace - unvented 1;                !- Standards Space Type

OS:OutputControl:Files,
  {a703801e-7cf9-4ae6-8fd1-911ceed8aaa9}, !- Handle
  No,                                     !- Output CSV
  Yes,                                    !- Output MTR
  Yes,                                    !- Output ESO
  Yes,                                    !- Output EIO
  Yes,                                    !- Output Tabular
  Yes,                                    !- Output SQLite
  Yes,                                    !- Output JSON
  Yes,                                    !- Output AUDIT
  Yes,                                    !- Output Zone Sizing
  Yes,                                    !- Output System Sizing
  Yes,                                    !- Output DXF
  Yes,                                    !- Output BND
  Yes,                                    !- Output RDD
  Yes,                                    !- Output MDD
  Yes,                                    !- Output MTD
  Yes,                                    !- Output SHD
  Yes,                                    !- Output DFS
  Yes,                                    !- Output GLHE
  Yes,                                    !- Output DelightIn
  Yes,                                    !- Output DelightELdmp
  Yes,                                    !- Output DelightDFdmp
  Yes,                                    !- Output EDD
  Yes,                                    !- Output DBG
  Yes,                                    !- Output PerfLog
  Yes,                                    !- Output SLN
  Yes,                                    !- Output SCI
  Yes,                                    !- Output WRL
  Yes,                                    !- Output Screen
  Yes,                                    !- Output ExtShd
  Yes;                                    !- Output Tarcog

OS:Output:JSON,
  {4c55fb5f-1f69-43c8-8f0e-b61f079a4693}, !- Handle
  TimeSeriesAndTabular,                   !- Option Type
  No,                                     !- Output JSON
  No,                                     !- Output CBOR
  Yes;                                    !- Output MessagePack

OS:EnergyManagementSystem:ProgramCallingManager,
  {2f328b25-01e1-4503-a74e-a6e150888639}, !- Handle
  total_loads_program calling manager,    !- Name
  EndOfZoneTimestepAfterZoneReporting,    !- EnergyPlus Model Calling Point
  {ef01b599-129b-428e-a4a7-2a1a9a047650}; !- Program Name 1

OS:EnergyManagementSystem:Program,
  {ef01b599-129b-428e-a4a7-2a1a9a047650}, !- Handle
  total_loads_program,                    !- Name
  Set loads_htg_tot = 0,                  !- Program Line 1
  Set loads_clg_tot = 0,                  !- Program Line 2
  If htg_load_liv > 0,                    !- Program Line 3
  Set loads_htg_tot = htg_load_tot - clg_load_tot, !- Program Line 4
  ElseIf clg_load_liv > 0,                !- Program Line 5
  Set loads_clg_tot = clg_load_tot - htg_load_tot, !- Program Line 6
  EndIf;                                  !- Program Line 7

OS:EnergyManagementSystem:Sensor,
  {9ffd04df-aca9-417e-ac71-25d4d1a8b45f}, !- Handle
  clg_load_tot,                           !- Name
  ,                                       !- Output Variable or Output Meter Index Key Name
  Cooling:EnergyTransfer;                 !- Output Variable or Output Meter Name

OS:EnergyManagementSystem:Sensor,
  {88c50d37-333d-48d1-abc7-f4d5c877089f}, !- Handle
  htg_load_tot,                           !- Name
  ,                                       !- Output Variable or Output Meter Index Key Name
  Heating:EnergyTransfer;                 !- Output Variable or Output Meter Name

OS:EnergyManagementSystem:Sensor,
  {fd585e93-fab7-42e8-a962-8b89bdd492bb}, !- Handle
  clg_load_liv,                           !- Name
  ,                                       !- Output Variable or Output Meter Index Key Name
  Cooling:EnergyTransfer:Zone:LIVING SPACE; !- Output Variable or Output Meter Name

OS:EnergyManagementSystem:Sensor,
  {fb02fa53-1814-417f-8e39-c65a82ed6c5f}, !- Handle
  htg_load_liv,                           !- Name
  ,                                       !- Output Variable or Output Meter Index Key Name
  Heating:EnergyTransfer:Zone:LIVING SPACE; !- Output Variable or Output Meter Name

OS:EnergyManagementSystem:ProgramCallingManager,
  {b88f516b-4743-4bcf-9990-f1bd44ab9c24}, !- Handle
  unmet_hours_program calling manager,    !- Name
  EndOfZoneTimestepBeforeZoneReporting,   !- EnergyPlus Model Calling Point
  {1deb95ba-aac1-4bd6-9b16-afaacdba5087}; !- Program Name 1

OS:EnergyManagementSystem:Sensor,
  {c48e0f95-7132-400b-934f-64b630b9c186}, !- Handle
  zone_clg_unmet_s,                       !- Name
  living space,                           !- Output Variable or Output Meter Index Key Name
  Zone Cooling Setpoint Not Met Time;     !- Output Variable or Output Meter Name

OS:EnergyManagementSystem:Sensor,
  {0955bbb2-f1fd-4ffb-812b-a223eff9964b}, !- Handle
  zone_htg_unmet_s,                       !- Name
  living space,                           !- Output Variable or Output Meter Index Key Name
  Zone Heating Setpoint Not Met Time;     !- Output Variable or Output Meter Name

OS:AdditionalProperties,
  {c90eb5ff-a10e-4dea-81d4-c24082b24f79}, !- Handle
  {fb8192d1-95a6-4578-8509-754ee2210e9e}, !- Object Name
  hpxml_path,                             !- Feature Name 1
  String,                                 !- Feature Data Type 1
  /Users/nlong/working/dissertation-analysis/dc/analysis/esbe/activity_3/coincident/run/baseline_scenario/12/unit 1.xml, !- Feature Value 1
  hpxml_defaults_path,                    !- Feature Name 2
  String,                                 !- Feature Data Type 2
  /Users/nlong/working/dissertation-analysis/dc/analysis/esbe/activity_3/coincident/run/baseline_scenario/12/in.xml, !- Feature Value 2
  building_id,                            !- Feature Name 3
  String,                                 !- Feature Data Type 3
  ,                                       !- Feature Value 3
  emissions_scenario_names,               !- Feature Name 4
  String,                                 !- Feature Data Type 4
  [],                                     !- Feature Value 4
  emissions_scenario_types,               !- Feature Name 5
  String,                                 !- Feature Data Type 5
  [],                                     !- Feature Value 5
  has_heating,                            !- Feature Name 6
  Boolean,                                !- Feature Data Type 6
  true,                                   !- Feature Value 6
  has_cooling,                            !- Feature Name 7
  Boolean,                                !- Feature Data Type 7
  false,                                  !- Feature Value 7
  NumberOfConditionedStories,             !- Feature Name 8
  Integer,                                !- Feature Data Type 8
  2;                                      !- Feature Value 8

OS:Building,
  {fb8192d1-95a6-4578-8509-754ee2210e9e}, !- Handle
  Building 1,                             !- Name
  ,                                       !- Building Sector Type
  ,                                       !- North Axis {deg}
  8,                                      !- Nominal Floor to Floor Height {m}
  ,                                       !- Space Type Name
  ,                                       !- Default Construction Set Name
  ,                                       !- Default Schedule Set Name
  2,                                      !- Standards Number of Stories
  2,                                      !- Standards Number of Above Ground Stories
  ,                                       !- Standards Template
  Residential,                            !- Standards Building Type
  1;                                      !- Standards Number of Living Units

OS:EnergyManagementSystem:ProgramCallingManager,
  {c7569bd7-1898-446c-9805-56abb560382e}, !- Handle
  infil_program calling manager,          !- Name
  BeginZoneTimestepAfterInitHeatBalance,  !- EnergyPlus Model Calling Point
  {482ee239-5332-4c57-80c6-09555639d057}; !- Program Name 1

OS:EnergyManagementSystem:Sensor,
  {2d5de1b4-77a8-402a-bd73-80f8dbc9aa69}, !- Handle
  clothes_dryer_exhaust_0_sch_s,          !- Name
  clothes dryer 1,                        !- Output Variable or Output Meter Index Key Name
  Schedule Value;                         !- Output Variable or Output Meter Name

OS:Schedule:Day,
  {e42c384d-4342-4a6d-a957-be8cc96bcd1c}, !- Handle
  clothes dryer allday1 1,                !- Name
  {e09e61b5-f560-4729-bb26-7a7ea290cae1}, !- Schedule Type Limits Name
  ,                                       !- Interpolate to Timestep
  1,                                      !- Hour 1
  0,                                      !- Minute 1
  0.123456790123457,                      !- Value Until Time 1
  2,                                      !- Hour 2
  0,                                      !- Minute 2
  0.0740740740740741,                     !- Value Until Time 2
  3,                                      !- Hour 3
  0,                                      !- Minute 3
  0.0493827160493827,                     !- Value Until Time 3
  4,                                      !- Hour 4
  0,                                      !- Minute 4
  0.0246913580246914,                     !- Value Until Time 4
  5,                                      !- Hour 5
  0,                                      !- Minute 5
  0.0493827160493827,                     !- Value Until Time 5
  6,                                      !- Hour 6
  0,                                      !- Minute 6
  0.0740740740740741,                     !- Value Until Time 6
  7,                                      !- Hour 7
  0,                                      !- Minute 7
  0.197530864197531,                      !- Value Until Time 7
  8,                                      !- Hour 8
  0,                                      !- Minute 8
  0.395061728395062,                      !- Value Until Time 8
  9,                                      !- Hour 9
  0,                                      !- Minute 9
  0.592592592592593,                      !- Value Until Time 9
  10,                                     !- Hour 10
  0,                                      !- Minute 10
  0.839506172839506,                      !- Value Until Time 10
  11,                                     !- Hour 11
  0,                                      !- Minute 11
  0.962962962962963,                      !- Value Until Time 11
  12,                                     !- Hour 12
  0,                                      !- Minute 12
  1,                                      !- Value Until Time 12
  13,                                     !- Hour 13
  0,                                      !- Minute 13
  0.91358024691358,                       !- Value Until Time 13
  14,                                     !- Hour 14
  0,                                      !- Minute 14
  0.827160493827161,                      !- Value Until Time 14
  15,                                     !- Hour 15
  0,                                      !- Minute 15
  0.703703703703704,                      !- Value Until Time 15
  16,                                     !- Hour 16
  0,                                      !- Minute 16
  0.753086419753086,                      !- Value Until Time 16
  17,                                     !- Hour 17
  0,                                      !- Minute 17
  0.679012345679012,                      !- Value Until Time 17
  18,                                     !- Hour 18
  0,                                      !- Minute 18
  0.666666666666667,                      !- Value Until Time 18
  20,                                     !- Hour 19
  0,                                      !- Minute 19
  0.62962962962963,                       !- Value Until Time 19
  21,                                     !- Hour 20
  0,                                      !- Minute 20
  0.641975308641975,                      !- Value Until Time 20
  22,                                     !- Hour 21
  0,                                      !- Minute 21
  0.666666666666667,                      !- Value Until Time 21
  23,                                     !- Hour 22
  0,                                      !- Minute 22
  0.54320987654321,                       !- Value Until Time 22
  24,                                     !- Hour 23
  0,                                      !- Minute 23
  0.296296296296296;                      !- Value Until Time 23

OS:Schedule:Rule,
  {0630d33d-9919-4983-8d85-e804a69864d6}, !- Handle
  clothes dryer allday ruleset1 1,        !- Name
  {719308fb-285c-4f37-baed-17c232536b91}, !- Schedule Ruleset Name
  0,                                      !- Rule Order
  {e42c384d-4342-4a6d-a957-be8cc96bcd1c}, !- Day Schedule Name
  Yes,                                    !- Apply Sunday
  Yes,                                    !- Apply Monday
  Yes,                                    !- Apply Tuesday
  Yes,                                    !- Apply Wednesday
  Yes,                                    !- Apply Thursday
  Yes,                                    !- Apply Friday
  Yes,                                    !- Apply Saturday
  DateRange,                              !- Date Specification Type
  1,                                      !- Start Month
  1,                                      !- Start Day
  12,                                     !- End Month
  31;                                     !- End Day

OS:Schedule:Day,
  {5efa934a-1a63-41aa-b040-60b9de638ee7}, !- Handle
  Schedule Day 20,                        !- Name
  {e09e61b5-f560-4729-bb26-7a7ea290cae1}, !- Schedule Type Limits Name
  ,                                       !- Interpolate to Timestep
  24,                                     !- Hour 1
  0,                                      !- Minute 1
  0;                                      !- Value Until Time 1

OS:Schedule:Ruleset,
  {719308fb-285c-4f37-baed-17c232536b91}, !- Handle
  clothes dryer 1,                        !- Name
  {e09e61b5-f560-4729-bb26-7a7ea290cae1}, !- Schedule Type Limits Name
  {5efa934a-1a63-41aa-b040-60b9de638ee7}; !- Default Day Schedule Name

OS:ElectricEquipment,
  {aefdc3e4-ac19-4784-ad35-7e85f814f821}, !- Handle
  mech vent bath fan 0,                   !- Name
  {1b4530a3-e3b7-49dc-a778-b6d8d4dc95d8}, !- Electric Equipment Definition Name
  {7b9297af-aad5-4148-932c-d4c8e0895aad}, !- Space or SpaceType Name
  {25ff9eb4-0a32-42a0-a303-b82c4f919a68}, !- Schedule Name
  ,                                       !- Multiplier
  mech vent;                              !- End-Use Subcategory

OS:ElectricEquipment:Definition,
  {1b4530a3-e3b7-49dc-a778-b6d8d4dc95d8}, !- Handle
  mech vent bath fan 0,                   !- Name
  EquipmentLevel,                         !- Design Level Calculation Method
  30,                                     !- Design Level {W}
  ,                                       !- Watts per Space Floor Area {W/m2}
  ,                                       !- Watts per Person {W/person}
  0,                                      !- Fraction Latent
  0,                                      !- Fraction Radiant
  1;                                      !- Fraction Lost

OS:EnergyManagementSystem:Sensor,
  {a6f3f326-78cd-45aa-a515-75eea3c2ccbc}, !- Handle
  mech_vent_bath_fan_0_sch_s,             !- Name
  mech vent bath fan 0 schedule,          !- Output Variable or Output Meter Index Key Name
  Schedule Value;                         !- Output Variable or Output Meter Name

OS:Schedule:Day,
  {8f1cfb1b-b634-4423-9ef9-bf0e5529d244}, !- Handle
  mech vent bath fan 0 schedule allday1,  !- Name
  {e09e61b5-f560-4729-bb26-7a7ea290cae1}, !- Schedule Type Limits Name
  ,                                       !- Interpolate to Timestep
  7,                                      !- Hour 1
  0,                                      !- Minute 1
  0,                                      !- Value Until Time 1
  8,                                      !- Hour 2
  0,                                      !- Minute 2
  1,                                      !- Value Until Time 2
  24,                                     !- Hour 3
  0,                                      !- Minute 3
  0;                                      !- Value Until Time 3

OS:Schedule:Rule,
  {80efe8b5-ddc2-49d0-be3e-a77815edf41a}, !- Handle
  mech vent bath fan 0 schedule allday ruleset1, !- Name
  {25ff9eb4-0a32-42a0-a303-b82c4f919a68}, !- Schedule Ruleset Name
  0,                                      !- Rule Order
  {8f1cfb1b-b634-4423-9ef9-bf0e5529d244}, !- Day Schedule Name
  Yes,                                    !- Apply Sunday
  Yes,                                    !- Apply Monday
  Yes,                                    !- Apply Tuesday
  Yes,                                    !- Apply Wednesday
  Yes,                                    !- Apply Thursday
  Yes,                                    !- Apply Friday
  Yes,                                    !- Apply Saturday
  DateRange,                              !- Date Specification Type
  1,                                      !- Start Month
  1,                                      !- Start Day
  12,                                     !- End Month
  31;                                     !- End Day

OS:Schedule:Day,
  {5a2fb52b-aeb3-45a5-a9a0-fc0a3ebb7a89}, !- Handle
  Schedule Day 19,                        !- Name
  {e09e61b5-f560-4729-bb26-7a7ea290cae1}, !- Schedule Type Limits Name
  ,                                       !- Interpolate to Timestep
  24,                                     !- Hour 1
  0,                                      !- Minute 1
  0;                                      !- Value Until Time 1

OS:Schedule:Ruleset,
  {25ff9eb4-0a32-42a0-a303-b82c4f919a68}, !- Handle
  mech vent bath fan 0 schedule,          !- Name
  {e09e61b5-f560-4729-bb26-7a7ea290cae1}, !- Schedule Type Limits Name
  {5a2fb52b-aeb3-45a5-a9a0-fc0a3ebb7a89}; !- Default Day Schedule Name

OS:ElectricEquipment,
  {3765d091-8a35-4771-bd98-df586b2be064}, !- Handle
  mech vent range fan 0,                  !- Name
  {9fef1781-2c24-4251-af39-9444682aff71}, !- Electric Equipment Definition Name
  {7b9297af-aad5-4148-932c-d4c8e0895aad}, !- Space or SpaceType Name
  {6fdd871c-6b37-49cf-a9d5-1e47ce547b52}, !- Schedule Name
  ,                                       !- Multiplier
  mech vent;                              !- End-Use Subcategory

OS:ElectricEquipment:Definition,
  {9fef1781-2c24-4251-af39-9444682aff71}, !- Handle
  mech vent range fan 0,                  !- Name
  EquipmentLevel,                         !- Design Level Calculation Method
  30,                                     !- Design Level {W}
  ,                                       !- Watts per Space Floor Area {W/m2}
  ,                                       !- Watts per Person {W/person}
  0,                                      !- Fraction Latent
  0,                                      !- Fraction Radiant
  1;                                      !- Fraction Lost

OS:EnergyManagementSystem:Sensor,
  {50d0fd11-7f00-42ae-b051-758e3e6e94db}, !- Handle
  mech_vent_range_fan_0_sch_s,            !- Name
  mech vent range fan 0 schedule,         !- Output Variable or Output Meter Index Key Name
  Schedule Value;                         !- Output Variable or Output Meter Name

OS:Schedule:Day,
  {5ca7aae9-42d3-4543-bc89-4a6aa6c4c96d}, !- Handle
  mech vent range fan 0 schedule allday1, !- Name
  {e09e61b5-f560-4729-bb26-7a7ea290cae1}, !- Schedule Type Limits Name
  ,                                       !- Interpolate to Timestep
  18,                                     !- Hour 1
  0,                                      !- Minute 1
  0,                                      !- Value Until Time 1
  19,                                     !- Hour 2
  0,                                      !- Minute 2
  1,                                      !- Value Until Time 2
  24,                                     !- Hour 3
  0,                                      !- Minute 3
  0;                                      !- Value Until Time 3

OS:Schedule:Rule,
  {e9dd6e16-3ca4-4dfc-b6e9-bd794cb92061}, !- Handle
  mech vent range fan 0 schedule allday ruleset1, !- Name
  {6fdd871c-6b37-49cf-a9d5-1e47ce547b52}, !- Schedule Ruleset Name
  0,                                      !- Rule Order
  {5ca7aae9-42d3-4543-bc89-4a6aa6c4c96d}, !- Day Schedule Name
  Yes,                                    !- Apply Sunday
  Yes,                                    !- Apply Monday
  Yes,                                    !- Apply Tuesday
  Yes,                                    !- Apply Wednesday
  Yes,                                    !- Apply Thursday
  Yes,                                    !- Apply Friday
  Yes,                                    !- Apply Saturday
  DateRange,                              !- Date Specification Type
  1,                                      !- Start Month
  1,                                      !- Start Day
  12,                                     !- End Month
  31;                                     !- End Day

OS:Schedule:Day,
  {7ca4959b-c136-4eb6-bcda-fd46497adb6b}, !- Handle
  Schedule Day 18,                        !- Name
  {e09e61b5-f560-4729-bb26-7a7ea290cae1}, !- Schedule Type Limits Name
  ,                                       !- Interpolate to Timestep
  24,                                     !- Hour 1
  0,                                      !- Minute 1
  0;                                      !- Value Until Time 1

OS:Schedule:Ruleset,
  {6fdd871c-6b37-49cf-a9d5-1e47ce547b52}, !- Handle
  mech vent range fan 0 schedule,         !- Name
  {e09e61b5-f560-4729-bb26-7a7ea290cae1}, !- Schedule Type Limits Name
  {7ca4959b-c136-4eb6-bcda-fd46497adb6b}; !- Default Day Schedule Name

OS:EnergyManagementSystem:Actuator,
  {d4905b82-78d9-4e38-b8d4-f6e3e7e79bf4}, !- Handle
  mech_vent_house_fan_latent_load_equip_act, !- Name
  {b6f80579-1eab-4b04-942d-c956f5a9fe44}, !- Actuated Component Name
  OtherEquipment,                         !- Actuated Component Type
  Power Level;                            !- Actuated Component Control Type

OS:OtherEquipment,
  {b6f80579-1eab-4b04-942d-c956f5a9fe44}, !- Handle
  mech vent house fan latent load equip,  !- Name
  {94e730ab-6238-4d4e-8392-92dd9b8dfe67}, !- Other Equipment Definition Name
  {7b9297af-aad5-4148-932c-d4c8e0895aad}, !- Space or SpaceType Name
  {8aed57e8-8fe3-47b9-8201-e27e9846685a}, !- Schedule Name
  ,                                       !- Multiplier
  None,                                   !- Fuel Type
  General;                                !- End-Use Subcategory

OS:OtherEquipment:Definition,
  {94e730ab-6238-4d4e-8392-92dd9b8dfe67}, !- Handle
  mech vent house fan latent load equip,  !- Name
  EquipmentLevel,                         !- Design Level Calculation Method
  0,                                      !- Design Level {W}
  ,                                       !- Watts per Space Floor Area {W/m2}
  ,                                       !- Watts per Person {W/Person}
  1,                                      !- Fraction Latent
  0,                                      !- Fraction Radiant
  0;                                      !- Fraction Lost

OS:EnergyManagementSystem:Actuator,
  {d33c8704-8521-4eab-804d-f2b6f3965e96}, !- Handle
  mech_vent_house_fan_sensible_load_equip_act, !- Name
  {c5c9b68b-c0e7-462c-88cb-ca438a4c18fb}, !- Actuated Component Name
  OtherEquipment,                         !- Actuated Component Type
  Power Level;                            !- Actuated Component Control Type

OS:OtherEquipment,
  {c5c9b68b-c0e7-462c-88cb-ca438a4c18fb}, !- Handle
  mech vent house fan sensible load equip, !- Name
  {f2393b29-3016-4eb0-82ca-8fb86716febd}, !- Other Equipment Definition Name
  {7b9297af-aad5-4148-932c-d4c8e0895aad}, !- Space or SpaceType Name
  {8aed57e8-8fe3-47b9-8201-e27e9846685a}, !- Schedule Name
  ,                                       !- Multiplier
  None,                                   !- Fuel Type
  General;                                !- End-Use Subcategory

OS:OtherEquipment:Definition,
  {f2393b29-3016-4eb0-82ca-8fb86716febd}, !- Handle
  mech vent house fan sensible load equip, !- Name
  EquipmentLevel,                         !- Design Level Calculation Method
  0,                                      !- Design Level {W}
  ,                                       !- Watts per Space Floor Area {W/m2}
  ,                                       !- Watts per Person {W/Person}
  0,                                      !- Fraction Latent
  0,                                      !- Fraction Radiant
  0;                                      !- Fraction Lost

OS:EnergyManagementSystem:Program,
  {482ee239-5332-4c57-80c6-09555639d057}, !- Handle
  infil_program,                          !- Name
  Set p_m = 0.14,                         !- Program Line 1
  Set p_s = 0.22,                         !- Program Line 2
  Set s_m = 270,                          !- Program Line 3
  Set s_s = 370,                          !- Program Line 4
  Set z_m = 9.99744,                      !- Program Line 5
  Set z_s = 4.8768,                       !- Program Line 6
  Set f_t = (((s_m/z_m)^p_m)*((z_s/s_s)^p_s)), !- Program Line 7
  Set Tdiff = airflow_tin_s-airflow_tt_s, !- Program Line 8
  Set dT = @Abs Tdiff,                    !- Program Line 9
  Set c = 0.0673,                         !- Program Line 10
  Set Cs = 0.0889,                        !- Program Line 11
  Set Cw = 0.1625,                        !- Program Line 12
  Set n = 0.65,                           !- Program Line 13
  Set sft = (f_t*0.5),                    !- Program Line 14
  Set temp1 = ((c*Cw)*((sft*site_vw_s)^(2*n)))^2, !- Program Line 15
  Set Qinf = (((c*Cs*(dT^n))^2)+temp1)^0.5, !- Program Line 16
  Set Qinf = (@Max Qinf 0),               !- Program Line 17
  Set mech_vent_house_fan_sensible_load_equip_act = 0.0, !- Program Line 18
  Set mech_vent_house_fan_latent_load_equip_act = 0.0, !- Program Line 19
  Set OASupInPb = out_pb_s,               !- Program Line 20
  Set OASupInTemp = airflow_tt_s,         !- Program Line 21
  Set OASupInW = out_wt_s,                !- Program Line 22
  Set OASupRho = (@RhoAirFnPbTdbW OASupInPb OASupInTemp OASupInW), !- Program Line 23
  Set OASupCp = (@CpAirFnW OASupInW),     !- Program Line 24
  Set OASupInEnth = (@HFnTdbW OASupInTemp OASupInW), !- Program Line 25
  Set ZoneTemp = airflow_tin_s,           !- Program Line 26
  Set ZoneW = airflow_win_s,              !- Program Line 27
  Set ZoneCp = (@CpAirFnW ZoneW),         !- Program Line 28
  Set ZoneAirEnth = (@HFnTdbW ZoneTemp ZoneW), !- Program Line 29
  Set mech_vent_house_fan_cfis_act = 0.0, !- Program Line 30
  Set QWHV_cfis_sup = 0.0,                !- Program Line 31
  Set QWHV_cfis_suppl_sup = 0.0,          !- Program Line 32