
OS:Version,
  {ee1cbb0d-56ba-4c33-84ff-4ff9334e23df}, !- Handle
  3.5.1;                                  !- Version Identifier

OS:Facility,
  {094c3615-af29-4764-ad7f-4a2f085b4578}; !- Handle

OS:Site,
  {c4826e7b-f140-4eed-9978-6352c9c5a9d5}, !- Handle
  Buffalo Niagara Intl Ap_NY_USA,         !- Name
  42.819065203262,                        !- Latitude {deg}
  -78.8520513837402,                      !- Longitude {deg}
  -5,                                     !- Time Zone {hr}
  53.6448,                                !- Elevation {m}
  City;                                   !- Terrain

OS:SimulationControl,
  {d1f34bf1-a6a9-420c-acb4-6dd40f6a80c6}, !- Handle
  ,                                       !- Do Zone Sizing Calculation
  ,                                       !- Do System Sizing Calculation
  ,                                       !- Do Plant Sizing Calculation
  No,                                     !- Run Simulation for Sizing Periods
  Yes,                                    !- Run Simulation for Weather File Run Periods
  ,                                       !- Loads Convergence Tolerance Value {W}
  ,                                       !- Temperature Convergence Tolerance Value {deltaC}
  ,                                       !- Solar Distribution
  ,                                       !- Maximum Number of Warmup Days
  ,                                       !- Minimum Number of Warmup Days
  No,                                     !- Do HVAC Sizing Simulation for Sizing Periods
  1;                                      !- Maximum Number of HVAC Sizing Simulation Passes

OS:Sizing:Parameters,
  {76ed966d-d23d-44dd-8cb8-05f2e39c4071}, !- Handle
  1.25,                                   !- Heating Sizing Factor
  1.15;                                   !- Cooling Sizing Factor

OS:Timestep,
  {23c9affc-29c3-4866-9dd6-9db34464269f}, !- Handle
  1;                                      !- Number of Timesteps per Hour

OS:ShadowCalculation,
  {c4d7a5f9-ff27-40cc-bfff-a32ebbe9c107}, !- Handle
  PolygonClipping,                        !- Shading Calculation Method
  ,                                       !- Shading Calculation Update Frequency Method
  20,                                     !- Shading Calculation Update Frequency
  15000,                                  !- Maximum Figures in Shadow Overlap Calculations
  ,                                       !- Polygon Clipping Algorithm
  512,                                    !- Pixel Counting Resolution
  ,                                       !- Sky Diffuse Modeling Algorithm
  No,                                     !- Output External Shading Calculation Results
  No,                                     !- Disable Self-Shading Within Shading Zone Groups
  No;                                     !- Disable Self-Shading From Shading Zone Groups to Other Zones

OS:HeatBalanceAlgorithm,
  {bd6294d3-409c-4f5e-9d2a-6446dabe399c}, !- Handle
  ConductionTransferFunction,             !- Algorithm
  200;                                    !- Surface Temperature Upper Limit {C}

OS:RunPeriod,
  {1d496d1b-304d-4612-96a1-713f0fd1c2b2}, !- Handle
  Run Period 1,                           !- Name
  1,                                      !- Begin Month
  1,                                      !- Begin Day of Month
  12,                                     !- End Month
  31,                                     !- End Day of Month
  ,                                       !- Use Weather File Holidays and Special Days
  ,                                       !- Use Weather File Daylight Saving Period
  ,                                       !- Apply Weekend Holiday Rule
  ,                                       !- Use Weather File Rain Indicators
  ,                                       !- Use Weather File Snow Indicators
  ;                                       !- Number of Times Runperiod to be Repeated

OS:LifeCycleCost:Parameters,
  {6085744b-2f02-435a-b52f-8062a1bcd047}, !- Handle
  ,                                       !- Analysis Type
  ,                                       !- Discounting Convention
  ,                                       !- Inflation Approach
  ,                                       !- Real Discount Rate
  ,                                       !- Nominal Discount Rate
  ,                                       !- Inflation
  ,                                       !- Base Date Month
  ,                                       !- Base Date Year
  ,                                       !- Service Date Month
  ,                                       !- Service Date Year
  ;                                       !- Length of Study Period in Years

OS:YearDescription,
  {87892ddd-4894-4bdd-a164-2e888c4cccbe}, !- Handle
  2017,                                   !- Calendar Year
  ,                                       !- Day of Week for Start Day
  ;                                       !- Is Leap Year

OS:WeatherFile,
  {548a6daa-ba31-498b-a66a-e2f5e589780c}, !- Handle
  Buffalo Niagara Intl Ap,                !- City
  NY,                                     !- State Province Region
  USA,                                    !- Country
  TMY3,                                   !- Data Source
  725280,                                 !- WMO Number
  42.93,                                  !- Latitude {deg}
  -78.73,                                 !- Longitude {deg}
  -5,                                     !- Time Zone {hr}
  215,                                    !- Elevation {m}
  /Users/nlong/working/dissertation-analysis/dc/analysis/esbe/activity_3/coincident/weather/USA_NY_Buffalo-Greater.Buffalo.Intl.AP.725280_TMY3.epw, !- Url
  ;                                       !- Checksum

OS:Site:WaterMainsTemperature,
  {1e9966cf-4c29-46e1-a7d3-e5ab07f74ab9}, !- Handle
  Correlation,                            !- Calculation Method
  ,                                       !- Temperature Schedule Name
  8.96666666666667,                       !- Annual Average Outdoor Air Temperature {C}
  26.2;                                   !- Maximum Difference In Monthly Average Outdoor Air Temperatures {deltaC}

OS:SizingPeriod:DesignDay,
  {b683625b-d6ef-4897-a2d6-63abda1a4e7a}, !- Handle
  Buffalo Niagara Intl Ap Ann Clg .4% Condns DB=>MWB 1, !- Name
  30.3,                                   !- Maximum Dry-Bulb Temperature {C}
  9.3,                                    !- Daily Dry-Bulb Temperature Range {deltaC}
  98769,                                  !- Barometric Pressure {Pa}
  5.7,                                    !- Wind Speed {m/s}
  240,                                    !- Wind Direction {deg}
  ,                                       !- Sky Clearness
  No,                                     !- Rain Indicator
  No,                                     !- Snow Indicator
  21,                                     !- Day of Month
  7,                                      !- Month
  SummerDesignDay,                        !- Day Type
  No,                                     !- Daylight Saving Time Indicator
  Wetbulb,                                !- Humidity Condition Type
  ,                                       !- Humidity Condition Day Schedule Name
  21.8,                                   !- Wetbulb or DewPoint at Maximum Dry-Bulb {C}
  ,                                       !- Humidity Ratio at Maximum Dry-Bulb {kgWater/kgDryAir}
  ,                                       !- Enthalpy at Maximum Dry-Bulb {J/kg}
  DefaultMultipliers,                     !- Dry-Bulb Temperature Range Modifier Type
  ,                                       !- Dry-Bulb Temperature Range Modifier Day Schedule Name
  ASHRAETau,                              !- Solar Model Indicator
  ,                                       !- Beam Solar Day Schedule Name
  ,                                       !- Diffuse Solar Day Schedule Name
  0.462,                                  !- ASHRAE Clear Sky Optical Depth for Beam Irradiance {dimensionless}
  2.001;                                  !- ASHRAE Clear Sky Optical Depth for Diffuse Irradiance {dimensionless}

OS:SizingPeriod:DesignDay,
  {b518ee05-a060-4695-bc60-8c68b037138c}, !- Handle
  Buffalo Niagara Intl Ap Ann Clg .4% Condns WB=>MDB 1, !- Name
  27.8,                                   !- Maximum Dry-Bulb Temperature {C}
  9.3,                                    !- Daily Dry-Bulb Temperature Range {deltaC}
  98769,                                  !- Barometric Pressure {Pa}
  5.7,                                    !- Wind Speed {m/s}
  240,                                    !- Wind Direction {deg}
  ,                                       !- Sky Clearness
  No,                                     !- Rain Indicator
  No,                                     !- Snow Indicator
  21,                                     !- Day of Month
  7,                                      !- Month
  SummerDesignDay,                        !- Day Type
  No,                                     !- Daylight Saving Time Indicator
  Wetbulb,                                !- Humidity Condition Type
  ,                                       !- Humidity Condition Day Schedule Name
  23.8,                                   !- Wetbulb or DewPoint at Maximum Dry-Bulb {C}
  ,                                       !- Humidity Ratio at Maximum Dry-Bulb {kgWater/kgDryAir}
  ,                                       !- Enthalpy at Maximum Dry-Bulb {J/kg}
  DefaultMultipliers,                     !- Dry-Bulb Temperature Range Modifier Type
  ,                                       !- Dry-Bulb Temperature Range Modifier Day Schedule Name
  ASHRAETau,                              !- Solar Model Indicator
  ,                                       !- Beam Solar Day Schedule Name
  ,                                       !- Diffuse Solar Day Schedule Name
  0.462,                                  !- ASHRAE Clear Sky Optical Depth for Beam Irradiance {dimensionless}
  2.001;                                  !- ASHRAE Clear Sky Optical Depth for Diffuse Irradiance {dimensionless}

OS:SizingPeriod:DesignDay,
  {e1aee64f-8305-40a2-9e00-271321831582}, !- Handle
  Buffalo Niagara Intl Ap Ann Htg 99.6% Condns DB 1, !- Name
  -16.3,                                  !- Maximum Dry-Bulb Temperature {C}
  0,                                      !- Daily Dry-Bulb Temperature Range {deltaC}
  98769,                                  !- Barometric Pressure {Pa}
  5.1,                                    !- Wind Speed {m/s}
  270,                                    !- Wind Direction {deg}
  0,                                      !- Sky Clearness
  No,                                     !- Rain Indicator
  No,                                     !- Snow Indicator
  21,                                     !- Day of Month
  1,                                      !- Month
  WinterDesignDay,                        !- Day Type
  No,                                     !- Daylight Saving Time Indicator
  Wetbulb,                                !- Humidity Condition Type
  ,                                       !- Humidity Condition Day Schedule Name
  -16.3,                                  !- Wetbulb or DewPoint at Maximum Dry-Bulb {C}
  ,                                       !- Humidity Ratio at Maximum Dry-Bulb {kgWater/kgDryAir}
  ,                                       !- Enthalpy at Maximum Dry-Bulb {J/kg}
  DefaultMultipliers,                     !- Dry-Bulb Temperature Range Modifier Type
  ,                                       !- Dry-Bulb Temperature Range Modifier Day Schedule Name
  ASHRAEClearSky;                         !- Solar Model Indicator

OS:ClimateZones,
  {e4ca27d5-bf50-4d08-95bb-1e21d1c8d400}, !- Handle
  ASHRAE,                                 !- Climate Zone Institution Name 1
  ANSI/ASHRAE Standard 169,               !- Climate Zone Document Name 1
  2006,                                   !- Climate Zone Document Year 1
  6A;                                     !- Climate Zone Value 1

OS:Rendering:Color,
  {0d4a156b-168b-4805-8f0f-36630ba2aa50}, !- Handle
  FullServiceRestaurant Kitchen,          !- Name
  78,                                     !- Rendering Red Value
  222,                                    !- Rendering Green Value
  133;                                    !- Rendering Blue Value

OS:Rendering:Color,
  {f83d71d7-4c2b-4c3d-8926-a62a9bb677a7}, !- Handle
  FullServiceRestaurant Dining,           !- Name
  31,                                     !- Rendering Red Value
  169,                                    !- Rendering Green Value
  34;                                     !- Rendering Blue Value

OS:RunPeriodControl:DaylightSavingTime,
  {aef1c4ba-d94e-45ac-8a8b-aec313ddf0fc}, !- Handle
  2nd Sunday in March,                    !- Start Date
  1st Sunday in November;                 !- End Date

OS:People:Definition,
  {dd7fc3a1-6301-4cc2-a4f7-bc6a97a84e69}, !- Handle
  FullServiceRestaurant Dining People Definition, !- Name
  People/Area,                            !- Number of People Calculation Method
  ,                                       !- Number of People {people}
  0.753473729169681,                      !- People per Space Floor Area {person/m2}
  ,                                       !- Space Floor Area per Person {m2/person}
  0.3,                                    !- Fraction Radiant
  ,                                       !- Sensible Heat Fraction
  ,                                       !- Carbon Dioxide Generation Rate {m3/s-W}
  Yes,                                    !- Enable ASHRAE 55 Comfort Warnings
  ZoneAveraged,                           !- Mean Radiant Temperature Calculation Type
  Fanger;                                 !- Thermal Comfort Model Type 1

OS:Schedule:Ruleset,
  {f9370492-fdcf-46ad-b3f2-342ed8fcabeb}, !- Handle
  Clothing Schedule,                      !- Name
  {0b94c3b7-fcb8-481b-851d-a8c007c657a2}, !- Schedule Type Limits Name
  {5d3d6527-0abd-4e5f-b7a9-6b48034cc29d}; !- Default Day Schedule Name

OS:Schedule:Day,
  {5d3d6527-0abd-4e5f-b7a9-6b48034cc29d}, !- Handle
  Clothing Schedule Default Winter Clothes, !- Name
  {0b94c3b7-fcb8-481b-851d-a8c007c657a2}, !- Schedule Type Limits Name
  ,                                       !- Interpolate to Timestep
  24,                                     !- Hour 1
  0,                                      !- Minute 1
  1;                                      !- Value Until Time 1

OS:Schedule:Rule,
  {832b4505-da2d-42e1-9a79-3297c1755995}, !- Handle
  Schedule Rule 1,                        !- Name
  {f9370492-fdcf-46ad-b3f2-342ed8fcabeb}, !- Schedule Ruleset Name
  0,                                      !- Rule Order
  {64a2320c-8b85-4b4e-9508-72351f15ca9e}, !- Day Schedule Name
  ,                                       !- Apply Sunday
  ,                                       !- Apply Monday
  ,                                       !- Apply Tuesday
  ,                                       !- Apply Wednesday
  ,                                       !- Apply Thursday
  ,                                       !- Apply Friday
  ,                                       !- Apply Saturday
  DateRange,                              !- Date Specification Type
  5,                                      !- Start Month
  1,                                      !- Start Day
  9,                                      !- End Month
  30;                                     !- End Day

OS:Schedule:Day,
  {64a2320c-8b85-4b4e-9508-72351f15ca9e}, !- Handle
  Clothing Schedule Summer Clothes,       !- Name
  {0b94c3b7-fcb8-481b-851d-a8c007c657a2}, !- Schedule Type Limits Name
  ,                                       !- Interpolate to Timestep
  24,                                     !- Hour 1
  0,                                      !- Minute 1
  0.5;                                    !- Value Until Time 1

OS:ScheduleTypeLimits,
  {0b94c3b7-fcb8-481b-851d-a8c007c657a2}, !- Handle
  ClothingInsulation,                     !- Name
  0,                                      !- Lower Limit Value
  ,                                       !- Upper Limit Value
  Continuous,                             !- Numeric Type
  ClothingInsulation;                     !- Unit Type

OS:Schedule:Ruleset,
  {9315bca6-ba46-4bf7-9a46-b79d245947c1}, !- Handle
  Air Velocity Schedule,                  !- Name
  {c44d1798-3a74-4ff9-a439-7a08e5fdd2cc}, !- Schedule Type Limits Name
  {f14b2e6a-8f85-461c-bb85-a0f5d49f199b}; !- Default Day Schedule Name

OS:Schedule:Day,
  {f14b2e6a-8f85-461c-bb85-a0f5d49f199b}, !- Handle
  Air Velocity Schedule Default,          !- Name
  {c44d1798-3a74-4ff9-a439-7a08e5fdd2cc}, !- Schedule Type Limits Name
  ,                                       !- Interpolate to Timestep
  24,                                     !- Hour 1
  0,                                      !- Minute 1
  0.2;                                    !- Value Until Time 1

OS:ScheduleTypeLimits,
  {c44d1798-3a74-4ff9-a439-7a08e5fdd2cc}, !- Handle
  Velocity,                               !- Name
  0,                                      !- Lower Limit Value
  ,                                       !- Upper Limit Value
  Continuous,                             !- Numeric Type
  Velocity;                               !- Unit Type

OS:Schedule:Ruleset,
  {2ce56b73-6bc8-48be-b2ca-2d2e8f3c4849}, !- Handle
  Work Efficiency Schedule,               !- Name
  {6f885a80-ec45-4341-8505-fe6e4290de62}, !- Schedule Type Limits Name
  {631671d7-9037-4f67-8677-e0f0f3ac6145}; !- Default Day Schedule Name

OS:Schedule:Day,
  {631671d7-9037-4f67-8677-e0f0f3ac6145}, !- Handle
  Work Efficiency Schedule Default,       !- Name
  {6f885a80-ec45-4341-8505-fe6e4290de62}, !- Schedule Type Limits Name
  ,                                       !- Interpolate to Timestep
  24,                                     !- Hour 1
  0,                                      !- Minute 1
  0;                                      !- Value Until Time 1

OS:ScheduleTypeLimits,
  {6f885a80-ec45-4341-8505-fe6e4290de62}, !- Handle
  Fractional,                             !- Name
  0,                                      !- Lower Limit Value
  1,                                      !- Upper Limit Value
  Continuous;                             !- Numeric Type

OS:Lights:Definition,
  {2ce45c3b-8eb2-471b-b5a9-92db43b15411}, !- Handle
  FullServiceRestaurant Dining Lights Definition, !- Name
  Watts/Area,                             !- Design Level Calculation Method
  ,                                       !- Lighting Level {W}
  9.57988027087165,                       !- Watts per Space Floor Area {W/m2}
  ,                                       !- Watts per Person {W/person}
  0.7,                                    !- Fraction Radiant
  0.2,                                    !- Fraction Visible
  0;                                      !- Return Air Fraction

OS:AdditionalProperties,
  {9a1e32c0-ad71-49c0-a415-f97985a0b577}, !- Handle
  {2ce45c3b-8eb2-471b-b5a9-92db43b15411}, !- Object Name
  lpd_fraction_linear_fluorescent,        !- Feature Name 1
  Double,                                 !- Feature Data Type 1
  1;                                      !- Feature Value 1

OS:ElectricEquipment:Definition,
  {739ca574-08e8-4b52-a889-4b350bf08ff4}, !- Handle
  FullServiceRestaurant Dining Elec Equip Definition, !- Name
  Watts/Area,                             !- Design Level Calculation Method
  ,                                       !- Design Level {W}
  64.927907633593,                        !- Watts per Space Floor Area {W/m2}
  ,                                       !- Watts per Person {W/person}
  0.25,                                   !- Fraction Latent
  0.3,                                    !- Fraction Radiant
  0;                                      !- Fraction Lost

OS:DesignSpecification:OutdoorAir,
  {c7cf2e54-4c07-4ecf-8c1c-352050d85c4b}, !- Handle
  FullServiceRestaurant Dining Ventilation, !- Name
  Sum,                                    !- Outdoor Air Method
  0.003539605824,                         !- Outdoor Air Flow per Person {m3/s-person}
  0.0009144,                              !- Outdoor Air Flow per Floor Area {m3/s-m2}
  ,                                       !- Outdoor Air Flow Rate {m3/s}
  ,                                       !- Outdoor Air Flow Air Changes per Hour {1/hr}
  ;                                       !- Outdoor Air Flow Rate Fraction Schedule Name

OS:DefaultScheduleSet,
  {b31621d8-e4c4-4396-a357-883ee66206a1}, !- Handle
  FullServiceRestaurant Dining Schedule Set, !- Name
  ,                                       !- Hours of Operation Schedule Name
  {1df9c02e-29b4-46e1-9bfd-ee2c7edc214a}, !- Number of People Schedule Name
  {85331e5c-253d-47d7-bc2d-eebdc07031ed}, !- People Activity Level Schedule Name
  {c7e1ffcd-4504-4ca1-9ed6-f0c39c44459e}, !- Lighting Schedule Name
  {d7426873-5866-41e3-ad41-ae646b4ef07e}, !- Electric Equipment Schedule Name
  ,                                       !- Gas Equipment Schedule Name
  ,                                       !- Hot Water Equipment Schedule Name
  {8cb312f1-3e1a-4702-87f2-6453d03d3aa3}, !- Infiltration Schedule Name
  ,                                       !- Steam Equipment Schedule Name
  ;                                       !- Other Equipment Schedule Name

OS:Schedule:Ruleset,
  {1df9c02e-29b4-46e1-9bfd-ee2c7edc214a}, !- Handle
  RestaurantSitDown BLDG_OCC_SCH,         !- Name
  {6f885a80-ec45-4341-8505-fe6e4290de62}, !- Schedule Type Limits Name
  {10fec3e1-f01c-4139-90ef-371489522cdb}, !- Default Day Schedule Name
  {6e36a912-f23d-4bcf-ab7e-a2e1e62758d3}, !- Summer Design Day Schedule Name
  {9c455259-ce5b-4077-a3f3-a99e68dc276f}; !- Winter Design Day Schedule Name

OS:Schedule:Day,
  {10fec3e1-f01c-4139-90ef-371489522cdb}, !- Handle
  RestaurantSitDown BLDG_OCC_SCH Default, !- Name
  {6f885a80-ec45-4341-8505-fe6e4290de62}, !- Schedule Type Limits Name
  Yes,                                    !- Interpolate to Timestep
  8,                                      !- Hour 1
  30,                                     !- Minute 1
  0,                                      !- Value Until Time 1
  9,                                      !- Hour 2
  30,                                     !- Minute 2
  0.05,                                   !- Value Until Time 2
  10,                                     !- Hour 3
  30,                                     !- Minute 3
  0.5,                                    !- Value Until Time 3
  11,                                     !- Hour 4
  0,                                      !- Minute 4
  0.5,                                    !- Value Until Time 4
  12,                                     !- Hour 5
  0,                                      !- Minute 5
  0.35,                                   !- Value Until Time 5
  13,                                     !- Hour 6
  0,                                      !- Minute 6
  0.2,                                    !- Value Until Time 6
  14,                                     !- Hour 7
  0,                                      !- Minute 7
  0.25,                                   !- Value Until Time 7
  15,                                     !- Hour 8
  0,                                      !- Minute 8
  0.35,                                   !- Value Until Time 8
  16,                                     !- Hour 9
  0,                                      !- Minute 9
  0.55,                                   !- Value Until Time 9
  16,                                     !- Hour 10
  30,                                     !- Minute 10
  0.05,                                   !- Value Until Time 10
  17,                                     !- Hour 11
  30,                                     !- Minute 11
  0,                                      !- Value Until Time 11
  24,                                     !- Hour 12
  0,                                      !- Minute 12
  0;                                      !- Value Until Time 12

OS:Schedule:Rule,
  {20168a88-0846-4b06-94c9-7815cde810e4}, !- Handle
  Schedule Rule 2,                        !- Name
  {1df9c02e-29b4-46e1-9bfd-ee2c7edc214a}, !- Schedule Ruleset Name
  1,                                      !- Rule Order
  {3b8f237d-327f-44ba-a0c7-2b9dbec4d4c0}, !- Day Schedule Name
  ,                                       !- Apply Sunday
  ,                                       !- Apply Monday
  ,                                       !- Apply Tuesday
  ,                                       !- Apply Wednesday
  ,                                       !- Apply Thursday
  ,                                       !- Apply Friday
  Yes,                                    !- Apply Saturday
  DateRange,                              !- Date Specification Type
  1,                                      !- Start Month
  1,                                      !- Start Day
  12,                                     !- End Month
  31;                                     !- End Day

OS:Schedule:Day,
  {3b8f237d-327f-44ba-a0c7-2b9dbec4d4c0}, !- Handle
  RestaurantSitDown BLDG_OCC_SCH Sat Day, !- Name
  {6f885a80-ec45-4341-8505-fe6e4290de62}, !- Schedule Type Limits Name
  Yes,                                    !- Interpolate to Timestep
  8,                                      !- Hour 1
  30,                                     !- Minute 1
  0,                                      !- Value Until Time 1
  9,                                      !- Hour 2
  30,                                     !- Minute 2
  0.05,                                   !- Value Until Time 2
  10,                                     !- Hour 3
  30,                                     !- Minute 3
  0.5,                                    !- Value Until Time 3
  11,                                     !- Hour 4
  30,                                     !- Minute 4
  0.5,                                    !- Value Until Time 4
  12,                                     !- Hour 5
  30,                                     !- Minute 5
  0.7,                                    !- Value Until Time 5
  13,                                     !- Hour 6
  0,                                      !- Minute 6
  0.3,                                    !- Value Until Time 6
  15,                                     !- Hour 7
  0,                                      !- Minute 7
  0.3,                                    !- Value Until Time 7
  16,                                     !- Hour 8
  0,                                      !- Minute 8
  0.7,                                    !- Value Until Time 8
  16,                                     !- Hour 9
  30,                                     !- Minute 9
  0.05,                                   !- Value Until Time 9
  17,                                     !- Hour 10
  30,                                     !- Minute 10
  0,                                      !- Value Until Time 10
  24,                                     !- Hour 11
  0,                                      !- Minute 11
  0;                                      !- Value Until Time 11

OS:Schedule:Day,
  {6e36a912-f23d-4bcf-ab7e-a2e1e62758d3}, !- Handle
  RestaurantSitDown BLDG_OCC_SCH Summer Design Day, !- Name
  {6f885a80-ec45-4341-8505-fe6e4290de62}, !- Schedule Type Limits Name
  ,                                       !- Interpolate to Timestep
  24,                                     !- Hour 1
  0,                                      !- Minute 1
  1;                                      !- Value Until Time 1

OS:Schedule:Rule,
  {88ca1d5d-c43c-4e7f-a398-68e710cf264d}, !- Handle
  Schedule Rule 3,                        !- Name
  {1df9c02e-29b4-46e1-9bfd-ee2c7edc214a}, !- Schedule Ruleset Name
  0,                                      !- Rule Order
  {4a9ecd0c-0ed5-4d58-8acd-fe17f1cb57f1}, !- Day Schedule Name
  ,                                       !- Apply Sunday
  Yes,                                    !- Apply Monday
  Yes,                                    !- Apply Tuesday
  Yes,                                    !- Apply Wednesday
  Yes,                                    !- Apply Thursday
  Yes,                                    !- Apply Friday
  ,                                       !- Apply Saturday
  DateRange,                              !- Date Specification Type
  1,                                      !- Start Month
  1,                                      !- Start Day
  12,                                     !- End Month
  31;                                     !- End Day

OS:Schedule:Day,
  {4a9ecd0c-0ed5-4d58-8acd-fe17f1cb57f1}, !- Handle
  RestaurantSitDown BLDG_OCC_SCH Wkdy Day, !- Name
  {6f885a80-ec45-4341-8505-fe6e4290de62}, !- Schedule Type Limits Name
  Yes,                                    !- Interpolate to Timestep
  7,                                      !- Hour 1
  30,                                     !- Minute 1
  0,                                      !- Value Until Time 1
  8,                                      !- Hour 2
  30,                                     !- Minute 2
  0.05,                                   !- Value Until Time 2
  9,                                      !- Hour 3
  30,                                     !- Minute 3
  0.1,                                    !- Value Until Time 3
  10,                                     !- Hour 4
  30,                                     !- Minute 4
  0.4,                                    !- Value Until Time 4
  11,                                     !- Hour 5
  30,                                     !- Minute 5
  0.6,                                    !- Value Until Time 5