
OS:Version,
  {b3c50618-16ff-4009-ace2-9088e1b21493}, !- Handle
  3.5.1;                                  !- Version Identifier

OS:Facility,
  {6c073eb9-d63a-4951-88a5-41a3fbc510da}; !- Handle

OS:Site,
  {37e11949-5a7f-4f48-bc91-e8bdb32f1f73}, !- Handle
  Buffalo Niagara Intl Ap_NY_USA,         !- Name
  42.8200671310297,                       !- Latitude {deg}
  -78.8496940461943,                      !- Longitude {deg}
  -5,                                     !- Time Zone {hr}
  53.6448,                                !- Elevation {m}
  City;                                   !- Terrain

OS:SimulationControl,
  {76626826-e0cc-4dc2-a2ef-65ed26e3a641}, !- Handle
  ,                                       !- Do Zone Sizing Calculation
  ,                                       !- Do System Sizing Calculation
  ,                                       !- Do Plant Sizing Calculation
  No,                                     !- Run Simulation for Sizing Periods
  Yes,                                    !- Run Simulation for Weather File Run Periods
  ,                                       !- Loads Convergence Tolerance Value {W}
  ,                                       !- Temperature Convergence Tolerance Value {deltaC}
  ,                                       !- Solar Distribution
  ,                                       !- Maximum Number of Warmup Days
  ,                                       !- Minimum Number of Warmup Days
  No,                                     !- Do HVAC Sizing Simulation for Sizing Periods
  1;                                      !- Maximum Number of HVAC Sizing Simulation Passes

OS:Sizing:Parameters,
  {046e5996-4675-4bc4-9198-493270b88913}, !- Handle
  1.25,                                   !- Heating Sizing Factor
  1.15;                                   !- Cooling Sizing Factor

OS:Timestep,
  {26545b19-bf06-4be5-aff4-9810a1543404}, !- Handle
  1;                                      !- Number of Timesteps per Hour

OS:ShadowCalculation,
  {325620c2-db5e-42aa-b78c-c653afb5e4de}, !- Handle
  PolygonClipping,                        !- Shading Calculation Method
  ,                                       !- Shading Calculation Update Frequency Method
  20,                                     !- Shading Calculation Update Frequency
  15000,                                  !- Maximum Figures in Shadow Overlap Calculations
  ,                                       !- Polygon Clipping Algorithm
  512,                                    !- Pixel Counting Resolution
  ,                                       !- Sky Diffuse Modeling Algorithm
  No,                                     !- Output External Shading Calculation Results
  No,                                     !- Disable Self-Shading Within Shading Zone Groups
  No;                                     !- Disable Self-Shading From Shading Zone Groups to Other Zones

OS:HeatBalanceAlgorithm,
  {85af6ae8-72c3-4314-ad6c-de94b1b248af}, !- Handle
  ConductionTransferFunction,             !- Algorithm
  200;                                    !- Surface Temperature Upper Limit {C}

OS:RunPeriod,
  {6ad9396f-9a0c-45c9-aee4-cd4106c6b012}, !- Handle
  Run Period 1,                           !- Name
  1,                                      !- Begin Month
  1,                                      !- Begin Day of Month
  12,                                     !- End Month
  31,                                     !- End Day of Month
  ,                                       !- Use Weather File Holidays and Special Days
  ,                                       !- Use Weather File Daylight Saving Period
  ,                                       !- Apply Weekend Holiday Rule
  ,                                       !- Use Weather File Rain Indicators
  ,                                       !- Use Weather File Snow Indicators
  ;                                       !- Number of Times Runperiod to be Repeated

OS:LifeCycleCost:Parameters,
  {65767115-99bf-43ee-b749-99c3484a481c}, !- Handle
  ,                                       !- Analysis Type
  ,                                       !- Discounting Convention
  ,                                       !- Inflation Approach
  ,                                       !- Real Discount Rate
  ,                                       !- Nominal Discount Rate
  ,                                       !- Inflation
  ,                                       !- Base Date Month
  ,                                       !- Base Date Year
  ,                                       !- Service Date Month
  ,                                       !- Service Date Year
  ;                                       !- Length of Study Period in Years

OS:YearDescription,
  {b7b48d0b-01a7-4788-9ef1-08cf8127e591}, !- Handle
  2017,                                   !- Calendar Year
  ,                                       !- Day of Week for Start Day
  ;                                       !- Is Leap Year

OS:WeatherFile,
  {004b3114-5425-42aa-b8bd-77ec91fcd4ce}, !- Handle
  Buffalo Niagara Intl Ap,                !- City
  NY,                                     !- State Province Region
  USA,                                    !- Country
  TMY3,                                   !- Data Source
  725280,                                 !- WMO Number
  42.93,                                  !- Latitude {deg}
  -78.73,                                 !- Longitude {deg}
  -5,                                     !- Time Zone {hr}
  215,                                    !- Elevation {m}
  /Users/nlong/working/dissertation-analysis/dc/analysis/esbe/activity_3/coincident/weather/USA_NY_Buffalo-Greater.Buffalo.Intl.AP.725280_TMY3.epw, !- Url
  ;                                       !- Checksum

OS:Site:WaterMainsTemperature,
  {c2c92e66-4699-4e0e-b54e-a33f72041a76}, !- Handle
  Correlation,                            !- Calculation Method
  ,                                       !- Temperature Schedule Name
  8.96666666666667,                       !- Annual Average Outdoor Air Temperature {C}
  26.2;                                   !- Maximum Difference In Monthly Average Outdoor Air Temperatures {deltaC}

OS:SizingPeriod:DesignDay,
  {a7ee3702-2ebf-462a-b452-56c929708498}, !- Handle
  Buffalo Niagara Intl Ap Ann Clg .4% Condns DB=>MWB 1, !- Name
  30.3,                                   !- Maximum Dry-Bulb Temperature {C}
  9.3,                                    !- Daily Dry-Bulb Temperature Range {deltaC}
  98769,                                  !- Barometric Pressure {Pa}
  5.7,                                    !- Wind Speed {m/s}
  240,                                    !- Wind Direction {deg}
  ,                                       !- Sky Clearness
  No,                                     !- Rain Indicator
  No,                                     !- Snow Indicator
  21,                                     !- Day of Month
  7,                                      !- Month
  SummerDesignDay,                        !- Day Type
  No,                                     !- Daylight Saving Time Indicator
  Wetbulb,                                !- Humidity Condition Type
  ,                                       !- Humidity Condition Day Schedule Name
  21.8,                                   !- Wetbulb or DewPoint at Maximum Dry-Bulb {C}
  ,                                       !- Humidity Ratio at Maximum Dry-Bulb {kgWater/kgDryAir}
  ,                                       !- Enthalpy at Maximum Dry-Bulb {J/kg}
  DefaultMultipliers,                     !- Dry-Bulb Temperature Range Modifier Type
  ,                                       !- Dry-Bulb Temperature Range Modifier Day Schedule Name
  ASHRAETau,                              !- Solar Model Indicator
  ,                                       !- Beam Solar Day Schedule Name
  ,                                       !- Diffuse Solar Day Schedule Name
  0.462,                                  !- ASHRAE Clear Sky Optical Depth for Beam Irradiance {dimensionless}
  2.001;                                  !- ASHRAE Clear Sky Optical Depth for Diffuse Irradiance {dimensionless}

OS:SizingPeriod:DesignDay,
  {0d6bc155-5047-43bc-9c88-75ea9869001e}, !- Handle
  Buffalo Niagara Intl Ap Ann Clg .4% Condns WB=>MDB 1, !- Name
  27.8,                                   !- Maximum Dry-Bulb Temperature {C}
  9.3,                                    !- Daily Dry-Bulb Temperature Range {deltaC}
  98769,                                  !- Barometric Pressure {Pa}
  5.7,                                    !- Wind Speed {m/s}
  240,                                    !- Wind Direction {deg}
  ,                                       !- Sky Clearness
  No,                                     !- Rain Indicator
  No,                                     !- Snow Indicator
  21,                                     !- Day of Month
  7,                                      !- Month
  SummerDesignDay,                        !- Day Type
  No,                                     !- Daylight Saving Time Indicator
  Wetbulb,                                !- Humidity Condition Type
  ,                                       !- Humidity Condition Day Schedule Name
  23.8,                                   !- Wetbulb or DewPoint at Maximum Dry-Bulb {C}
  ,                                       !- Humidity Ratio at Maximum Dry-Bulb {kgWater/kgDryAir}
  ,                                       !- Enthalpy at Maximum Dry-Bulb {J/kg}
  DefaultMultipliers,                     !- Dry-Bulb Temperature Range Modifier Type
  ,                                       !- Dry-Bulb Temperature Range Modifier Day Schedule Name
  ASHRAETau,                              !- Solar Model Indicator
  ,                                       !- Beam Solar Day Schedule Name
  ,                                       !- Diffuse Solar Day Schedule Name
  0.462,                                  !- ASHRAE Clear Sky Optical Depth for Beam Irradiance {dimensionless}
  2.001;                                  !- ASHRAE Clear Sky Optical Depth for Diffuse Irradiance {dimensionless}

OS:SizingPeriod:DesignDay,
  {acae9901-3e9f-4883-b68a-a35a4fe63131}, !- Handle
  Buffalo Niagara Intl Ap Ann Htg 99.6% Condns DB 1, !- Name
  -16.3,                                  !- Maximum Dry-Bulb Temperature {C}
  0,                                      !- Daily Dry-Bulb Temperature Range {deltaC}
  98769,                                  !- Barometric Pressure {Pa}
  5.1,                                    !- Wind Speed {m/s}
  270,                                    !- Wind Direction {deg}
  0,                                      !- Sky Clearness
  No,                                     !- Rain Indicator
  No,                                     !- Snow Indicator
  21,                                     !- Day of Month
  1,                                      !- Month
  WinterDesignDay,                        !- Day Type
  No,                                     !- Daylight Saving Time Indicator
  Wetbulb,                                !- Humidity Condition Type
  ,                                       !- Humidity Condition Day Schedule Name
  -16.3,                                  !- Wetbulb or DewPoint at Maximum Dry-Bulb {C}
  ,                                       !- Humidity Ratio at Maximum Dry-Bulb {kgWater/kgDryAir}
  ,                                       !- Enthalpy at Maximum Dry-Bulb {J/kg}
  DefaultMultipliers,                     !- Dry-Bulb Temperature Range Modifier Type
  ,                                       !- Dry-Bulb Temperature Range Modifier Day Schedule Name
  ASHRAEClearSky;                         !- Solar Model Indicator

OS:ClimateZones,
  {e6589c11-d05c-448b-b6e0-16770d8b4e2d}, !- Handle
  ASHRAE,                                 !- Climate Zone Institution Name 1
  ANSI/ASHRAE Standard 169,               !- Climate Zone Document Name 1
  2006,                                   !- Climate Zone Document Year 1
  6A;                                     !- Climate Zone Value 1

OS:Rendering:Color,
  {d3cab55c-e376-4145-84c8-ca2c978b660b}, !- Handle
  Office WholeBuilding - Sm Office,       !- Name
  120,                                    !- Rendering Red Value
  230,                                    !- Rendering Green Value
  199;                                    !- Rendering Blue Value

OS:RunPeriodControl:DaylightSavingTime,
  {e7e35aaf-4157-45b4-9004-33056e97e609}, !- Handle
  2nd Sunday in March,                    !- Start Date
  1st Sunday in November;                 !- End Date

OS:People:Definition,
  {fc4baafb-6ee3-470f-a10e-1c65476aa49f}, !- Handle
  Office WholeBuilding - Sm Office People Definition, !- Name
  People/Area,                            !- Number of People Calculation Method
  ,                                       !- Number of People {people}
  0.0602778983335744,                     !- People per Space Floor Area {person/m2}
  ,                                       !- Space Floor Area per Person {m2/person}
  0.3,                                    !- Fraction Radiant
  ,                                       !- Sensible Heat Fraction
  ,                                       !- Carbon Dioxide Generation Rate {m3/s-W}
  Yes,                                    !- Enable ASHRAE 55 Comfort Warnings
  ZoneAveraged,                           !- Mean Radiant Temperature Calculation Type
  Fanger;                                 !- Thermal Comfort Model Type 1

OS:Schedule:Ruleset,
  {bb08d903-c0bf-4768-8a9e-521f7aa5c03e}, !- Handle
  Clothing Schedule,                      !- Name
  {97a1e8f7-988f-4f35-b01c-9fd30e60a673}, !- Schedule Type Limits Name
  {1d10dbd5-b745-485c-9324-a213826d3759}; !- Default Day Schedule Name

OS:Schedule:Day,
  {1d10dbd5-b745-485c-9324-a213826d3759}, !- Handle
  Clothing Schedule Default Winter Clothes, !- Name
  {97a1e8f7-988f-4f35-b01c-9fd30e60a673}, !- Schedule Type Limits Name
  ,                                       !- Interpolate to Timestep
  24,                                     !- Hour 1
  0,                                      !- Minute 1
  1;                                      !- Value Until Time 1

OS:Schedule:Rule,
  {7de95b02-e9a5-4bd4-b1fa-9e30ca087a89}, !- Handle
  Schedule Rule 1,                        !- Name
  {bb08d903-c0bf-4768-8a9e-521f7aa5c03e}, !- Schedule Ruleset Name
  0,                                      !- Rule Order
  {4f5fd94b-146a-4a26-86b5-72890b58bd50}, !- Day Schedule Name
  ,                                       !- Apply Sunday
  ,                                       !- Apply Monday
  ,                                       !- Apply Tuesday
  ,                                       !- Apply Wednesday
  ,                                       !- Apply Thursday
  ,                                       !- Apply Friday
  ,                                       !- Apply Saturday
  DateRange,                              !- Date Specification Type
  5,                                      !- Start Month
  1,                                      !- Start Day
  9,                                      !- End Month
  30;                                     !- End Day

OS:Schedule:Day,
  {4f5fd94b-146a-4a26-86b5-72890b58bd50}, !- Handle
  Clothing Schedule Summer Clothes,       !- Name
  {97a1e8f7-988f-4f35-b01c-9fd30e60a673}, !- Schedule Type Limits Name
  ,                                       !- Interpolate to Timestep
  24,                                     !- Hour 1
  0,                                      !- Minute 1
  0.5;                                    !- Value Until Time 1

OS:ScheduleTypeLimits,
  {97a1e8f7-988f-4f35-b01c-9fd30e60a673}, !- Handle
  ClothingInsulation,                     !- Name
  0,                                      !- Lower Limit Value
  ,                                       !- Upper Limit Value
  Continuous,                             !- Numeric Type
  ClothingInsulation;                     !- Unit Type

OS:Schedule:Ruleset,
  {7cd978ae-c944-4abf-ad7a-85d8e258b54c}, !- Handle
  Air Velocity Schedule,                  !- Name
  {1025929c-9fed-44d4-a49f-ee172d32777b}, !- Schedule Type Limits Name
  {c3670ea5-889b-4139-90b5-68b8e74d9d5d}; !- Default Day Schedule Name

OS:Schedule:Day,
  {c3670ea5-889b-4139-90b5-68b8e74d9d5d}, !- Handle
  Air Velocity Schedule Default,          !- Name
  {1025929c-9fed-44d4-a49f-ee172d32777b}, !- Schedule Type Limits Name
  ,                                       !- Interpolate to Timestep
  24,                                     !- Hour 1
  0,                                      !- Minute 1
  0.2;                                    !- Value Until Time 1

OS:ScheduleTypeLimits,
  {1025929c-9fed-44d4-a49f-ee172d32777b}, !- Handle
  Velocity,                               !- Name
  0,                                      !- Lower Limit Value
  ,                                       !- Upper Limit Value
  Continuous,                             !- Numeric Type
  Velocity;                               !- Unit Type

OS:Schedule:Ruleset,
  {50fe3ee6-64f2-495f-b587-a43485ef8421}, !- Handle
  Work Efficiency Schedule,               !- Name
  {76d81639-a537-4f84-bf14-a8ea6267a99e}, !- Schedule Type Limits Name
  {1897692e-f6be-43b8-84c4-9baba145ea17}; !- Default Day Schedule Name

OS:Schedule:Day,
  {1897692e-f6be-43b8-84c4-9baba145ea17}, !- Handle
  Work Efficiency Schedule Default,       !- Name
  {76d81639-a537-4f84-bf14-a8ea6267a99e}, !- Schedule Type Limits Name
  ,                                       !- Interpolate to Timestep
  24,                                     !- Hour 1
  0,                                      !- Minute 1
  0;                                      !- Value Until Time 1

OS:ScheduleTypeLimits,
  {76d81639-a537-4f84-bf14-a8ea6267a99e}, !- Handle
  Fractional,                             !- Name
  0,                                      !- Lower Limit Value
  1,                                      !- Upper Limit Value
  Continuous;                             !- Numeric Type

OS:Lights:Definition,
  {5444136f-7391-4b24-b5d6-19ee50a692a9}, !- Handle
  Office WholeBuilding - Sm Office Lights Definition, !- Name
  Watts/Area,                             !- Design Level Calculation Method
  ,                                       !- Lighting Level {W}
  8.82640654170197,                       !- Watts per Space Floor Area {W/m2}
  ,                                       !- Watts per Person {W/person}
  0.7,                                    !- Fraction Radiant
  0.2,                                    !- Fraction Visible
  0;                                      !- Return Air Fraction

OS:AdditionalProperties,
  {c0211fd7-e550-44f0-a3db-0dd317115269}, !- Handle
  {5444136f-7391-4b24-b5d6-19ee50a692a9}, !- Object Name
  lpd_fraction_linear_fluorescent,        !- Feature Name 1
  Double,                                 !- Feature Data Type 1
  1;                                      !- Feature Value 1

OS:ElectricEquipment:Definition,
  {32aa22bd-aa9f-458c-8649-9ea14025367a}, !- Handle
  Office WholeBuilding - Sm Office Elec Equip Definition, !- Name
  Watts/Area,                             !- Design Level Calculation Method
  ,                                       !- Design Level {W}
  6.78126356252712,                       !- Watts per Space Floor Area {W/m2}
  ,                                       !- Watts per Person {W/person}
  0,                                      !- Fraction Latent
  0,                                      !- Fraction Radiant
  0;                                      !- Fraction Lost

OS:DesignSpecification:OutdoorAir,
  {64143eac-2cf6-4767-93c3-73978a332034}, !- Handle
  Office WholeBuilding - Sm Office Ventilation, !- Name
  Sum,                                    !- Outdoor Air Method
  ,                                       !- Outdoor Air Flow per Person {m3/s-person}
  0.0004318,                              !- Outdoor Air Flow per Floor Area {m3/s-m2}
  ,                                       !- Outdoor Air Flow Rate {m3/s}
  ,                                       !- Outdoor Air Flow Air Changes per Hour {1/hr}
  ;                                       !- Outdoor Air Flow Rate Fraction Schedule Name

OS:DefaultScheduleSet,
  {e2f7226c-8742-40bc-a4bd-d4ac1301cac6}, !- Handle
  Office WholeBuilding - Sm Office Schedule Set, !- Name
  ,                                       !- Hours of Operation Schedule Name
  {45c84a99-7758-47b1-82ae-3ab10d465427}, !- Number of People Schedule Name
  {86204c4b-7cd1-43e9-998c-78752982cb30}, !- People Activity Level Schedule Name
  {7ea4f6ee-f501-4fb1-903a-393918dba7e0}, !- Lighting Schedule Name
  {b5b4a615-b345-4b7b-b8d5-52220a6c0c79}, !- Electric Equipment Schedule Name
  ,                                       !- Gas Equipment Schedule Name
  ,                                       !- Hot Water Equipment Schedule Name
  {02351062-1fda-4527-97ad-d4ed65cab64e}, !- Infiltration Schedule Name
  ,                                       !- Steam Equipment Schedule Name
  ;                                       !- Other Equipment Schedule Name

OS:Schedule:Ruleset,
  {45c84a99-7758-47b1-82ae-3ab10d465427}, !- Handle
  OfficeSmall BLDG_OCC_SCH,               !- Name
  {76d81639-a537-4f84-bf14-a8ea6267a99e}, !- Schedule Type Limits Name
  {5f7447b7-7869-406c-add4-45cb3638b939}, !- Default Day Schedule Name
  {d488e466-d93f-4889-be07-3de588fdf43e}, !- Summer Design Day Schedule Name
  {36abaca9-446d-444c-bba8-3c045e3945b1}; !- Winter Design Day Schedule Name

OS:Schedule:Day,
  {5f7447b7-7869-406c-add4-45cb3638b939}, !- Handle
  OfficeSmall BLDG_OCC_SCH Default,       !- Name
  {76d81639-a537-4f84-bf14-a8ea6267a99e}, !- Schedule Type Limits Name
  Yes,                                    !- Interpolate to Timestep
  9,                                      !- Hour 1
  0,                                      !- Minute 1
  0,                                      !- Value Until Time 1
  24,                                     !- Hour 2
  0,                                      !- Minute 2
  0;                                      !- Value Until Time 2

OS:Schedule:Day,
  {36abaca9-446d-444c-bba8-3c045e3945b1}, !- Handle
  OfficeSmall BLDG_OCC_SCH Winter Design Day, !- Name
  {76d81639-a537-4f84-bf14-a8ea6267a99e}, !- Schedule Type Limits Name
  ,                                       !- Interpolate to Timestep
  24,                                     !- Hour 1
  0,                                      !- Minute 1
  0;                                      !- Value Until Time 1

OS:Schedule:Day,
  {d488e466-d93f-4889-be07-3de588fdf43e}, !- Handle
  OfficeSmall BLDG_OCC_SCH Summer Design Day, !- Name
  {76d81639-a537-4f84-bf14-a8ea6267a99e}, !- Schedule Type Limits Name
  ,                                       !- Interpolate to Timestep
  24,                                     !- Hour 1
  0,                                      !- Minute 1
  1;                                      !- Value Until Time 1

OS:Schedule:Rule,
  {2c72d0ae-b00b-4b29-b162-ec190c5df51c}, !- Handle
  Schedule Rule 2,                        !- Name
  {45c84a99-7758-47b1-82ae-3ab10d465427}, !- Schedule Ruleset Name
  0,                                      !- Rule Order
  {7a4f252d-8824-4288-9810-b7784ea3684e}, !- Day Schedule Name
  ,                                       !- Apply Sunday
  Yes,                                    !- Apply Monday
  Yes,                                    !- Apply Tuesday
  Yes,                                    !- Apply Wednesday
  Yes,                                    !- Apply Thursday
  Yes,                                    !- Apply Friday
  ,                                       !- Apply Saturday
  DateRange,                              !- Date Specification Type
  1,                                      !- Start Month
  1,                                      !- Start Day
  12,                                     !- End Month
  31;                                     !- End Day

OS:Schedule:Day,
  {7a4f252d-8824-4288-9810-b7784ea3684e}, !- Handle
  OfficeSmall BLDG_OCC_SCH Wkdy Day,      !- Name
  {76d81639-a537-4f84-bf14-a8ea6267a99e}, !- Schedule Type Limits Name
  Yes,                                    !- Interpolate to Timestep
  6,                                      !- Hour 1
  30,                                     !- Minute 1
  0,                                      !- Value Until Time 1
  7,                                      !- Hour 2
  30,                                     !- Minute 2
  0.11,                                   !- Value Until Time 2
  8,                                      !- Hour 3
  30,                                     !- Minute 3
  0.21,                                   !- Value Until Time 3
  9,                                      !- Hour 4
  30,                                     !- Minute 4
  1,                                      !- Value Until Time 4
  11,                                     !- Hour 5
  30,                                     !- Minute 5
  1,                                      !- Value Until Time 5
  12,                                     !- Hour 6
  30,                                     !- Minute 6
  0.53,                                   !- Value Until Time 6
  13,                                     !- Hour 7
  30,                                     !- Minute 7
  1,                                      !- Value Until Time 7
  15,                                     !- Hour 8
  30,                                     !- Minute 8
  1,                                      !- Value Until Time 8
  16,                                     !- Hour 9
  30,                                     !- Minute 9
  0.32,                                   !- Value Until Time 9
  17,                                     !- Hour 10
  30,                                     !- Minute 10
  0.11,                                   !- Value Until Time 10
  20,                                     !- Hour 11
  30,                                     !- Minute 11
  0.11,                                   !- Value Until Time 11
  21,                                     !- Hour 12
  30,                                     !- Minute 12
  0.05,                                   !- Value Until Time 12
  22,                                     !- Hour 13
  30,                                     !- Minute 13
  0,                                      !- Value Until Time 13
  24,                                     !- Hour 14
  0,                                      !- Minute 14
  0;                                      !- Value Until Time 14

OS:Schedule:Ruleset,
  {86204c4b-7cd1-43e9-998c-78752982cb30}, !- Handle
  OfficeSmall ACTIVITY_SCH,               !- Name
  {3ba56035-863e-4252-b9d7-0380d446b614}, !- Schedule Type Limits Name
  {117d18fc-495d-4863-ba01-b23fbb5795bf}, !- Default Day Schedule Name
  {2b31d463-bf9d-4d06-839d-a7a2291232f0}, !- Summer Design Day Schedule Name
  {1ce31f60-830c-44e5-ad40-113082dc5449}; !- Winter Design Day Schedule Name

OS:Schedule:Day,
  {117d18fc-495d-4863-ba01-b23fbb5795bf}, !- Handle
  OfficeSmall ACTIVITY_SCH Default,       !- Name
  {3ba56035-863e-4252-b9d7-0380d446b614}, !- Schedule Type Limits Name
  Yes,                                    !- Interpolate to Timestep
  24,                                     !- Hour 1
  0,                                      !- Minute 1
  120;                                    !- Value Until Time 1

OS:Schedule:Day,
  {1ce31f60-830c-44e5-ad40-113082dc5449}, !- Handle
  OfficeSmall ACTIVITY_SCH Winter Design Day, !- Name
  {3ba56035-863e-4252-b9d7-0380d446b614}, !- Schedule Type Limits Name
  ,                                       !- Interpolate to Timestep
  24,                                     !- Hour 1
  0,                                      !- Minute 1
  120;                                    !- Value Until Time 1

OS:Schedule:Day,
  {2b31d463-bf9d-4d06-839d-a7a2291232f0}, !- Handle
  OfficeSmall ACTIVITY_SCH Summer Design Day, !- Name
  {3ba56035-863e-4252-b9d7-0380d446b614}, !- Schedule Type Limits Name
  ,                                       !- Interpolate to Timestep
  24,                                     !- Hour 1
  0,                                      !- Minute 1
  120;                                    !- Value Until Time 1

OS:ScheduleTypeLimits,
  {3ba56035-863e-4252-b9d7-0380d446b614}, !- Handle
  ActivityLevel,                          !- Name
  0,                                      !- Lower Limit Value
  ,                                       !- Upper Limit Value
  Continuous,                             !- Numeric Type
  ActivityLevel;                          !- Unit Type

OS:Schedule:Ruleset,
  {7ea4f6ee-f501-4fb1-903a-393918dba7e0}, !- Handle
  OfficeSmall BLDG_LIGHT_SCH_2013,        !- Name
  {76d81639-a537-4f84-bf14-a8ea6267a99e}, !- Schedule Type Limits Name
  {1418d600-17d4-4b98-8849-019a8a4881ec}, !- Default Day Schedule Name
  {68ad0ff6-05fb-41e2-bb73-564beb10ec13}, !- Summer Design Day Schedule Name
  {6e5c52bf-0a13-4c82-876f-af850c90333a}; !- Winter Design Day Schedule Name

OS:Schedule:Day,
  {1418d600-17d4-4b98-8849-019a8a4881ec}, !- Handle
  OfficeSmall BLDG_LIGHT_SCH_2013 Default, !- Name
  {76d81639-a537-4f84-bf14-a8ea6267a99e}, !- Schedule Type Limits Name
  Yes,                                    !- Interpolate to Timestep
  5,                                      !- Hour 1
  30,                                     !- Minute 1
  0.18,                                   !- Value Until Time 1
  6,                                      !- Hour 2
  30,                                     !- Minute 2
  0.23,                                   !- Value Until Time 2
  7,                                      !- Hour 3
  30,                                     !- Minute 3