
OS:Version,
  {d95da83f-2489-4955-abb4-a8d957982e0e}, !- Handle
  3.5.1;                                  !- Version Identifier

OS:Facility,
  {c41ac313-8b9b-43fb-aebf-45ee1b0810c6}; !- Handle

OS:LifeCycleCost:Parameters,
  {c77e4759-e83e-4703-a592-ae7665bfd9b3}, !- Handle
  ,                                       !- Analysis Type
  ,                                       !- Discounting Convention
  ,                                       !- Inflation Approach
  ,                                       !- Real Discount Rate
  ,                                       !- Nominal Discount Rate
  ,                                       !- Inflation
  ,                                       !- Base Date Month
  ,                                       !- Base Date Year
  ,                                       !- Service Date Month
  ,                                       !- Service Date Year
  ;                                       !- Length of Study Period in Years

OS:SpaceType,
  {209d3b51-732a-4e3d-859c-e42ee97cc05b}, !- Handle
  Space Type 3,                           !- Name
  ,                                       !- Default Construction Set Name
  ,                                       !- Default Schedule Set Name
  ,                                       !- Group Rendering Name
  ,                                       !- Design Specification Outdoor Air Object Name
  ,                                       !- Standards Template
  Single-Family Detached,                 !- Standards Building Type
  living space 1;                         !- Standards Space Type

OS:SpaceType,
  {1c4893d0-19fd-42ea-8401-3d8077d41eb0}, !- Handle
  Space Type 2,                           !- Name
  ,                                       !- Default Construction Set Name
  ,                                       !- Default Schedule Set Name
  ,                                       !- Group Rendering Name
  ,                                       !- Design Specification Outdoor Air Object Name
  ,                                       !- Standards Template
  ,                                       !- Standards Building Type
  crawlspace - unvented 1;                !- Standards Space Type

OS:SpaceType,
  {74b0c9da-ab32-43ca-8149-ec6ab1167f31}, !- Handle
  Space Type 1,                           !- Name
  ,                                       !- Default Construction Set Name
  ,                                       !- Default Schedule Set Name
  ,                                       !- Group Rendering Name
  ,                                       !- Design Specification Outdoor Air Object Name
  ,                                       !- Standards Template
  ,                                       !- Standards Building Type
  attic - vented 1;                       !- Standards Space Type

OS:OutputControl:Files,
  {f8f594a1-dc33-4bd7-a60c-bdf60e770212}, !- Handle
  No,                                     !- Output CSV
  Yes,                                    !- Output MTR
  Yes,                                    !- Output ESO
  Yes,                                    !- Output EIO
  Yes,                                    !- Output Tabular
  Yes,                                    !- Output SQLite
  Yes,                                    !- Output JSON
  Yes,                                    !- Output AUDIT
  Yes,                                    !- Output Zone Sizing
  Yes,                                    !- Output System Sizing
  Yes,                                    !- Output DXF
  Yes,                                    !- Output BND
  Yes,                                    !- Output RDD
  Yes,                                    !- Output MDD
  Yes,                                    !- Output MTD
  Yes,                                    !- Output SHD
  Yes,                                    !- Output DFS
  Yes,                                    !- Output GLHE
  Yes,                                    !- Output DelightIn
  Yes,                                    !- Output DelightELdmp
  Yes,                                    !- Output DelightDFdmp
  Yes,                                    !- Output EDD
  Yes,                                    !- Output DBG
  Yes,                                    !- Output PerfLog
  Yes,                                    !- Output SLN
  Yes,                                    !- Output SCI
  Yes,                                    !- Output WRL
  Yes,                                    !- Output Screen
  Yes,                                    !- Output ExtShd
  Yes;                                    !- Output Tarcog

OS:Output:JSON,
  {fed9e454-c415-4edd-94f0-da85e33b0f2f}, !- Handle
  TimeSeriesAndTabular,                   !- Option Type
  No,                                     !- Output JSON
  No,                                     !- Output CBOR
  Yes;                                    !- Output MessagePack

OS:EnergyManagementSystem:ProgramCallingManager,
  {5c9d9643-be27-4802-a437-31c3e32911a0}, !- Handle
  total_loads_program calling manager,    !- Name
  EndOfZoneTimestepAfterZoneReporting,    !- EnergyPlus Model Calling Point
  {18dbd943-8a44-4e74-836f-5169573e7312}; !- Program Name 1

OS:EnergyManagementSystem:Program,
  {18dbd943-8a44-4e74-836f-5169573e7312}, !- Handle
  total_loads_program,                    !- Name
  Set loads_htg_tot = 0,                  !- Program Line 1
  Set loads_clg_tot = 0,                  !- Program Line 2
  If htg_load_liv > 0,                    !- Program Line 3
  Set loads_htg_tot = htg_load_tot - clg_load_tot, !- Program Line 4
  ElseIf clg_load_liv > 0,                !- Program Line 5
  Set loads_clg_tot = clg_load_tot - htg_load_tot, !- Program Line 6
  EndIf;                                  !- Program Line 7

OS:EnergyManagementSystem:Sensor,
  {a5ba51e9-314f-4a93-8a6b-6d3234a2585a}, !- Handle
  clg_load_tot,                           !- Name
  ,                                       !- Output Variable or Output Meter Index Key Name
  Cooling:EnergyTransfer;                 !- Output Variable or Output Meter Name

OS:EnergyManagementSystem:Sensor,
  {f4c521ec-351f-4ee1-8c71-29d4433373c1}, !- Handle
  htg_load_tot,                           !- Name
  ,                                       !- Output Variable or Output Meter Index Key Name
  Heating:EnergyTransfer;                 !- Output Variable or Output Meter Name

OS:EnergyManagementSystem:Sensor,
  {642deebe-65de-4f9e-99d0-1577891d94ac}, !- Handle
  clg_load_liv,                           !- Name
  ,                                       !- Output Variable or Output Meter Index Key Name
  Cooling:EnergyTransfer:Zone:LIVING SPACE; !- Output Variable or Output Meter Name

OS:EnergyManagementSystem:Sensor,
  {a037d51e-f50f-4613-a20b-586031a60aa8}, !- Handle
  htg_load_liv,                           !- Name
  ,                                       !- Output Variable or Output Meter Index Key Name
  Heating:EnergyTransfer:Zone:LIVING SPACE; !- Output Variable or Output Meter Name

OS:EnergyManagementSystem:ProgramCallingManager,
  {48d64989-a5b6-4f5b-a8ca-6edb7689fc54}, !- Handle
  unmet_hours_program calling manager,    !- Name
  EndOfZoneTimestepBeforeZoneReporting,   !- EnergyPlus Model Calling Point
  {7ee6d97f-8cb1-4e4e-a05a-a596b4f7dd9c}; !- Program Name 1

OS:EnergyManagementSystem:Program,
  {7ee6d97f-8cb1-4e4e-a05a-a596b4f7dd9c}, !- Handle
  unmet_hours_program,                    !- Name
  Set htg_unmet_hours = 0,                !- Program Line 1
  Set clg_unmet_hours = 0,                !- Program Line 2
  If (DayOfYear >= 1) && (DayOfYear <= 365), !- Program Line 3
  Set htg_unmet_hours = htg_unmet_hours + zone_htg_unmet_s, !- Program Line 4
  EndIf;                                  !- Program Line 5

OS:EnergyManagementSystem:Sensor,
  {865aab03-1f50-4aa8-b4d6-e8047cfdba87}, !- Handle
  zone_clg_unmet_s,                       !- Name
  living space,                           !- Output Variable or Output Meter Index Key Name
  Zone Cooling Setpoint Not Met Time;     !- Output Variable or Output Meter Name

OS:EnergyManagementSystem:Sensor,
  {d33afeac-4fc8-4a77-868b-0084d56a06fa}, !- Handle
  zone_htg_unmet_s,                       !- Name
  living space,                           !- Output Variable or Output Meter Index Key Name
  Zone Heating Setpoint Not Met Time;     !- Output Variable or Output Meter Name

OS:AdditionalProperties,
  {4daa3504-92f8-4994-9c19-144a7ceec210}, !- Handle
  {8905e953-c2e4-4e39-bbb0-f8606cccd7ab}, !- Object Name
  hpxml_path,                             !- Feature Name 1
  String,                                 !- Feature Data Type 1
  /Users/nlong/working/dissertation-analysis/dc/analysis/esbe/activity_3/coincident/run/baseline_scenario/18/unit 1.xml, !- Feature Value 1
  hpxml_defaults_path,                    !- Feature Name 2
  String,                                 !- Feature Data Type 2
  /Users/nlong/working/dissertation-analysis/dc/analysis/esbe/activity_3/coincident/run/baseline_scenario/18/in.xml, !- Feature Value 2
  building_id,                            !- Feature Name 3
  String,                                 !- Feature Data Type 3
  ,                                       !- Feature Value 3
  emissions_scenario_names,               !- Feature Name 4
  String,                                 !- Feature Data Type 4
  [],                                     !- Feature Value 4
  emissions_scenario_types,               !- Feature Name 5
  String,                                 !- Feature Data Type 5
  [],                                     !- Feature Value 5
  has_heating,                            !- Feature Name 6
  Boolean,                                !- Feature Data Type 6
  true,                                   !- Feature Value 6
  has_cooling,                            !- Feature Name 7
  Boolean,                                !- Feature Data Type 7
  false,                                  !- Feature Value 7
  NumberOfConditionedStories,             !- Feature Name 8
  Integer,                                !- Feature Data Type 8
  2;                                      !- Feature Value 8

OS:Building,
  {8905e953-c2e4-4e39-bbb0-f8606cccd7ab}, !- Handle
  Building 1,                             !- Name
  ,                                       !- Building Sector Type
  ,                                       !- North Axis {deg}
  8,                                      !- Nominal Floor to Floor Height {m}
  ,                                       !- Space Type Name
  ,                                       !- Default Construction Set Name
  ,                                       !- Default Schedule Set Name
  2,                                      !- Standards Number of Stories
  2,                                      !- Standards Number of Above Ground Stories
  ,                                       !- Standards Template
  Residential,                            !- Standards Building Type
  1;                                      !- Standards Number of Living Units

OS:EnergyManagementSystem:ProgramCallingManager,
  {4f6c6e69-e4a6-4492-9c48-dd4e7ace2eda}, !- Handle
  infil_program calling manager,          !- Name
  BeginZoneTimestepAfterInitHeatBalance,  !- EnergyPlus Model Calling Point
  {1c415dd1-1226-4fdd-92e4-477deb9fc21b}; !- Program Name 1

OS:EnergyManagementSystem:Sensor,
  {f38a51ac-e919-441e-843e-4699377f7f2a}, !- Handle
  clothes_dryer_exhaust_0_sch_s,          !- Name
  clothes dryer 1,                        !- Output Variable or Output Meter Index Key Name
  Schedule Value;                         !- Output Variable or Output Meter Name

OS:Schedule:Day,
  {636347cb-7e8e-4744-abda-9b4cc69f4b5b}, !- Handle
  clothes dryer allday1 1,                !- Name
  {9dd3fab0-4396-45cf-b642-397dbca3fbab}, !- Schedule Type Limits Name
  ,                                       !- Interpolate to Timestep
  1,                                      !- Hour 1
  0,                                      !- Minute 1
  0.123456790123457,                      !- Value Until Time 1
  2,                                      !- Hour 2
  0,                                      !- Minute 2
  0.0740740740740741,                     !- Value Until Time 2
  3,                                      !- Hour 3
  0,                                      !- Minute 3
  0.0493827160493827,                     !- Value Until Time 3
  4,                                      !- Hour 4
  0,                                      !- Minute 4
  0.0246913580246914,                     !- Value Until Time 4
  5,                                      !- Hour 5
  0,                                      !- Minute 5
  0.0493827160493827,                     !- Value Until Time 5
  6,                                      !- Hour 6
  0,                                      !- Minute 6
  0.0740740740740741,                     !- Value Until Time 6
  7,                                      !- Hour 7
  0,                                      !- Minute 7
  0.197530864197531,                      !- Value Until Time 7
  8,                                      !- Hour 8
  0,                                      !- Minute 8
  0.395061728395062,                      !- Value Until Time 8
  9,                                      !- Hour 9
  0,                                      !- Minute 9
  0.592592592592593,                      !- Value Until Time 9
  10,                                     !- Hour 10
  0,                                      !- Minute 10
  0.839506172839506,                      !- Value Until Time 10
  11,                                     !- Hour 11
  0,                                      !- Minute 11
  0.962962962962963,                      !- Value Until Time 11
  12,                                     !- Hour 12
  0,                                      !- Minute 12
  1,                                      !- Value Until Time 12
  13,                                     !- Hour 13
  0,                                      !- Minute 13
  0.91358024691358,                       !- Value Until Time 13
  14,                                     !- Hour 14
  0,                                      !- Minute 14
  0.827160493827161,                      !- Value Until Time 14
  15,                                     !- Hour 15
  0,                                      !- Minute 15
  0.703703703703704,                      !- Value Until Time 15
  16,                                     !- Hour 16
  0,                                      !- Minute 16
  0.753086419753086,                      !- Value Until Time 16
  17,                                     !- Hour 17
  0,                                      !- Minute 17
  0.679012345679012,                      !- Value Until Time 17
  18,                                     !- Hour 18
  0,                                      !- Minute 18
  0.666666666666667,                      !- Value Until Time 18
  20,                                     !- Hour 19
  0,                                      !- Minute 19
  0.62962962962963,                       !- Value Until Time 19
  21,                                     !- Hour 20
  0,                                      !- Minute 20
  0.641975308641975,                      !- Value Until Time 20
  22,                                     !- Hour 21
  0,                                      !- Minute 21
  0.666666666666667,                      !- Value Until Time 21
  23,                                     !- Hour 22
  0,                                      !- Minute 22
  0.54320987654321,                       !- Value Until Time 22
  24,                                     !- Hour 23
  0,                                      !- Minute 23
  0.296296296296296;                      !- Value Until Time 23

OS:Schedule:Rule,
  {6177d809-0723-46a7-8a7f-fdfb87ec94f3}, !- Handle
  clothes dryer allday ruleset1 1,        !- Name
  {565fb35b-5009-4a94-9fd9-65bf8202167d}, !- Schedule Ruleset Name
  0,                                      !- Rule Order
  {636347cb-7e8e-4744-abda-9b4cc69f4b5b}, !- Day Schedule Name
  Yes,                                    !- Apply Sunday
  Yes,                                    !- Apply Monday
  Yes,                                    !- Apply Tuesday
  Yes,                                    !- Apply Wednesday
  Yes,                                    !- Apply Thursday
  Yes,                                    !- Apply Friday
  Yes,                                    !- Apply Saturday
  DateRange,                              !- Date Specification Type
  1,                                      !- Start Month
  1,                                      !- Start Day
  12,                                     !- End Month
  31;                                     !- End Day

OS:Schedule:Day,
  {4d4225de-46bd-4564-a907-7f1807af4590}, !- Handle
  Schedule Day 20,                        !- Name
  {9dd3fab0-4396-45cf-b642-397dbca3fbab}, !- Schedule Type Limits Name
  ,                                       !- Interpolate to Timestep
  24,                                     !- Hour 1
  0,                                      !- Minute 1
  0;                                      !- Value Until Time 1

OS:Schedule:Ruleset,
  {565fb35b-5009-4a94-9fd9-65bf8202167d}, !- Handle
  clothes dryer 1,                        !- Name
  {9dd3fab0-4396-45cf-b642-397dbca3fbab}, !- Schedule Type Limits Name
  {4d4225de-46bd-4564-a907-7f1807af4590}; !- Default Day Schedule Name

OS:ElectricEquipment,
  {dd8a8163-1df3-4559-985b-ee292448ed9f}, !- Handle
  mech vent bath fan 0,                   !- Name
  {ae155091-a027-48e9-a758-4b1fc687d564}, !- Electric Equipment Definition Name
  {f50c2de0-2ce9-4609-83a5-7ba2e09d7896}, !- Space or SpaceType Name
  {7f3f4ef8-7887-4446-ba0d-043859c2df1a}, !- Schedule Name
  ,                                       !- Multiplier
  mech vent;                              !- End-Use Subcategory

OS:ElectricEquipment:Definition,
  {ae155091-a027-48e9-a758-4b1fc687d564}, !- Handle
  mech vent bath fan 0,                   !- Name
  EquipmentLevel,                         !- Design Level Calculation Method
  30,                                     !- Design Level {W}
  ,                                       !- Watts per Space Floor Area {W/m2}
  ,                                       !- Watts per Person {W/person}
  0,                                      !- Fraction Latent
  0,                                      !- Fraction Radiant
  1;                                      !- Fraction Lost

OS:EnergyManagementSystem:Sensor,
  {45854fa2-d727-4ebf-933d-e32a141468c6}, !- Handle
  mech_vent_bath_fan_0_sch_s,             !- Name
  mech vent bath fan 0 schedule,          !- Output Variable or Output Meter Index Key Name
  Schedule Value;                         !- Output Variable or Output Meter Name

OS:Schedule:Day,
  {feedaf0a-b6d0-48ee-948d-ede883fbb4ae}, !- Handle
  mech vent bath fan 0 schedule allday1,  !- Name
  {9dd3fab0-4396-45cf-b642-397dbca3fbab}, !- Schedule Type Limits Name
  ,                                       !- Interpolate to Timestep
  7,                                      !- Hour 1
  0,                                      !- Minute 1
  0,                                      !- Value Until Time 1
  8,                                      !- Hour 2
  0,                                      !- Minute 2
  1,                                      !- Value Until Time 2
  24,                                     !- Hour 3
  0,                                      !- Minute 3
  0;                                      !- Value Until Time 3

OS:Schedule:Rule,
  {cedbcc1b-8117-4837-a8bb-213008758c2a}, !- Handle
  mech vent bath fan 0 schedule allday ruleset1, !- Name
  {7f3f4ef8-7887-4446-ba0d-043859c2df1a}, !- Schedule Ruleset Name
  0,                                      !- Rule Order
  {feedaf0a-b6d0-48ee-948d-ede883fbb4ae}, !- Day Schedule Name
  Yes,                                    !- Apply Sunday
  Yes,                                    !- Apply Monday
  Yes,                                    !- Apply Tuesday
  Yes,                                    !- Apply Wednesday
  Yes,                                    !- Apply Thursday
  Yes,                                    !- Apply Friday
  Yes,                                    !- Apply Saturday
  DateRange,                              !- Date Specification Type
  1,                                      !- Start Month
  1,                                      !- Start Day
  12,                                     !- End Month
  31;                                     !- End Day

OS:Schedule:Day,
  {0d9aae9c-d8d3-414f-87a7-8417aeda416a}, !- Handle
  Schedule Day 19,                        !- Name
  {9dd3fab0-4396-45cf-b642-397dbca3fbab}, !- Schedule Type Limits Name
  ,                                       !- Interpolate to Timestep
  24,                                     !- Hour 1
  0,                                      !- Minute 1
  0;                                      !- Value Until Time 1

OS:Schedule:Ruleset,
  {7f3f4ef8-7887-4446-ba0d-043859c2df1a}, !- Handle
  mech vent bath fan 0 schedule,          !- Name
  {9dd3fab0-4396-45cf-b642-397dbca3fbab}, !- Schedule Type Limits Name
  {0d9aae9c-d8d3-414f-87a7-8417aeda416a}; !- Default Day Schedule Name

OS:ElectricEquipment,
  {f6705706-442a-454a-987e-fe60792cb9bb}, !- Handle
  mech vent range fan 0,                  !- Name
  {b8dbe86c-6b39-4f47-bfca-d88093383396}, !- Electric Equipment Definition Name
  {f50c2de0-2ce9-4609-83a5-7ba2e09d7896}, !- Space or SpaceType Name
  {df3c4e46-6778-4852-9158-c12a1ce7ccb2}, !- Schedule Name
  ,                                       !- Multiplier
  mech vent;                              !- End-Use Subcategory

OS:ElectricEquipment:Definition,
  {b8dbe86c-6b39-4f47-bfca-d88093383396}, !- Handle
  mech vent range fan 0,                  !- Name
  EquipmentLevel,                         !- Design Level Calculation Method
  30,                                     !- Design Level {W}
  ,                                       !- Watts per Space Floor Area {W/m2}
  ,                                       !- Watts per Person {W/person}
  0,                                      !- Fraction Latent
  0,                                      !- Fraction Radiant
  1;                                      !- Fraction Lost

OS:EnergyManagementSystem:Sensor,
  {546d0164-f328-4adc-a87b-2983b3997bf1}, !- Handle
  mech_vent_range_fan_0_sch_s,            !- Name
  mech vent range fan 0 schedule,         !- Output Variable or Output Meter Index Key Name
  Schedule Value;                         !- Output Variable or Output Meter Name

OS:Schedule:Day,
  {170935e2-5ff2-4746-a4a6-620e62157978}, !- Handle
  mech vent range fan 0 schedule allday1, !- Name
  {9dd3fab0-4396-45cf-b642-397dbca3fbab}, !- Schedule Type Limits Name
  ,                                       !- Interpolate to Timestep
  18,                                     !- Hour 1
  0,                                      !- Minute 1
  0,                                      !- Value Until Time 1
  19,                                     !- Hour 2
  0,                                      !- Minute 2
  1,                                      !- Value Until Time 2
  24,                                     !- Hour 3
  0,                                      !- Minute 3
  0;                                      !- Value Until Time 3

OS:Schedule:Rule,
  {1ffcf58c-0283-4574-9e73-5bbdb4b7fb46}, !- Handle
  mech vent range fan 0 schedule allday ruleset1, !- Name
  {df3c4e46-6778-4852-9158-c12a1ce7ccb2}, !- Schedule Ruleset Name
  0,                                      !- Rule Order
  {170935e2-5ff2-4746-a4a6-620e62157978}, !- Day Schedule Name
  Yes,                                    !- Apply Sunday
  Yes,                                    !- Apply Monday
  Yes,                                    !- Apply Tuesday
  Yes,                                    !- Apply Wednesday
  Yes,                                    !- Apply Thursday
  Yes,                                    !- Apply Friday
  Yes,                                    !- Apply Saturday
  DateRange,                              !- Date Specification Type
  1,                                      !- Start Month
  1,                                      !- Start Day
  12,                                     !- End Month
  31;                                     !- End Day

OS:Schedule:Day,
  {f32de328-fd42-4eee-89b3-4fb683b92970}, !- Handle
  Schedule Day 18,                        !- Name
  {9dd3fab0-4396-45cf-b642-397dbca3fbab}, !- Schedule Type Limits Name
  ,                                       !- Interpolate to Timestep
  24,                                     !- Hour 1
  0,                                      !- Minute 1
  0;                                      !- Value Until Time 1

OS:Schedule:Ruleset,
  {df3c4e46-6778-4852-9158-c12a1ce7ccb2}, !- Handle
  mech vent range fan 0 schedule,         !- Name
  {9dd3fab0-4396-45cf-b642-397dbca3fbab}, !- Schedule Type Limits Name
  {f32de328-fd42-4eee-89b3-4fb683b92970}; !- Default Day Schedule Name

OS:EnergyManagementSystem:Actuator,
  {954f9ebc-b0b6-4918-8818-57ed464596b9}, !- Handle
  mech_vent_house_fan_latent_load_equip_act, !- Name
  {7d7c7c6e-207c-4f38-993e-71c3149e4240}, !- Actuated Component Name
  OtherEquipment,                         !- Actuated Component Type
  Power Level;                            !- Actuated Component Control Type

OS:OtherEquipment,
  {7d7c7c6e-207c-4f38-993e-71c3149e4240}, !- Handle
  mech vent house fan latent load equip,  !- Name
  {a186b514-16d1-4863-b19c-121e79f1a9a4}, !- Other Equipment Definition Name
  {f50c2de0-2ce9-4609-83a5-7ba2e09d7896}, !- Space or SpaceType Name
  {9fbeb936-b875-4358-9c26-f80a96c14676}, !- Schedule Name
  ,                                       !- Multiplier
  None,                                   !- Fuel Type
  General;                                !- End-Use Subcategory

OS:OtherEquipment:Definition,
  {a186b514-16d1-4863-b19c-121e79f1a9a4}, !- Handle
  mech vent house fan latent load equip,  !- Name
  EquipmentLevel,                         !- Design Level Calculation Method
  0,                                      !- Design Level {W}
  ,                                       !- Watts per Space Floor Area {W/m2}
  ,                                       !- Watts per Person {W/Person}
  1,                                      !- Fraction Latent
  0,                                      !- Fraction Radiant
  0;                                      !- Fraction Lost

OS:EnergyManagementSystem:Actuator,
  {7cf0fab9-f904-4bd3-a364-53d87cf06ef0}, !- Handle
  mech_vent_house_fan_sensible_load_equip_act, !- Name
  {21baf0b4-50b0-407f-9aae-eb67235cbfa0}, !- Actuated Component Name
  OtherEquipment,                         !- Actuated Component Type
  Power Level;                            !- Actuated Component Control Type

OS:OtherEquipment,
  {21baf0b4-50b0-407f-9aae-eb67235cbfa0}, !- Handle
  mech vent house fan sensible load equip, !- Name
  {a1de42ee-34ae-4733-853e-6cff5914e070}, !- Other Equipment Definition Name
  {f50c2de0-2ce9-4609-83a5-7ba2e09d7896}, !- Space or SpaceType Name
  {9fbeb936-b875-4358-9c26-f80a96c14676}, !- Schedule Name
  ,                                       !- Multiplier
  None,                                   !- Fuel Type
  General;                                !- End-Use Subcategory

OS:OtherEquipment:Definition,
  {a1de42ee-34ae-4733-853e-6cff5914e070}, !- Handle
  mech vent house fan sensible load equip, !- Name
  EquipmentLevel,                         !- Design Level Calculation Method
  0,                                      !- Design Level {W}
  ,                                       !- Watts per Space Floor Area {W/m2}
  ,                                       !- Watts per Person {W/Person}
  0,                                      !- Fraction Latent
  0,                                      !- Fraction Radiant
  0;                                      !- Fraction Lost

OS:EnergyManagementSystem:Program,
  {1c415dd1-1226-4fdd-92e4-477deb9fc21b}, !- Handle
  infil_program,                          !- Name
  Set p_m = 0.14,                         !- Program Line 1
  Set p_s = 0.22,                         !- Program Line 2
  Set s_m = 270,                          !- Program Line 3
  Set s_s = 370,                          !- Program Line 4
  Set z_m = 9.99744,                      !- Program Line 5
  Set z_s = 4.8768,                       !- Program Line 6
  Set f_t = (((s_m/z_m)^p_m)*((z_s/s_s)^p_s)), !- Program Line 7
  Set Tdiff = airflow_tin_s-airflow_tt_s, !- Program Line 8
  Set dT = @Abs Tdiff,                    !- Program Line 9
  Set c = 0.0627,                         !- Program Line 10
  Set Cs = 0.0889,                        !- Program Line 11
  Set Cw = 0.1625,                        !- Program Line 12
  Set n = 0.65,                           !- Program Line 13
  Set sft = (f_t*0.5),                    !- Program Line 14
  Set temp1 = ((c*Cw)*((sft*site_vw_s)^(2*n)))^2, !- Program Line 15
  Set Qinf = (((c*Cs*(dT^n))^2)+temp1)^0.5, !- Program Line 16
  Set Qinf = (@Max Qinf 0),               !- Program Line 17
  Set mech_vent_house_fan_sensible_load_equip_act = 0.0, !- Program Line 18
  Set mech_vent_house_fan_latent_load_equip_act = 0.0, !- Program Line 19
  Set OASupInPb = out_pb_s,               !- Program Line 20
  Set OASupInTemp = airflow_tt_s,         !- Program Line 21
  Set OASupInW = out_wt_s,                !- Program Line 22
  Set OASupRho = (@RhoAirFnPbTdbW OASupInPb OASupInTemp OASupInW), !- Program Line 23
  Set OASupCp = (@CpAirFnW OASupInW),     !- Program Line 24