
OS:Version,
  {296a308e-80f8-4f2e-b4ad-e9e3db0eadbe}, !- Handle
  3.5.1;                                  !- Version Identifier

OS:Facility,
  {9bc93276-654d-45a6-ac7f-5f1d9c8abaf8}; !- Handle

OS:Site,
  {d087d143-9a05-4e34-ada2-d8a306628fb4}, !- Handle
  Buffalo Niagara Intl Ap_NY_USA,         !- Name
  42.8196697998197,                       !- Latitude {deg}
  -78.8494971511989,                      !- Longitude {deg}
  -5,                                     !- Time Zone {hr}
  53.6448,                                !- Elevation {m}
  City;                                   !- Terrain

OS:SimulationControl,
  {1dcc39a7-1db7-4198-865c-3cbba98e33db}, !- Handle
  ,                                       !- Do Zone Sizing Calculation
  ,                                       !- Do System Sizing Calculation
  ,                                       !- Do Plant Sizing Calculation
  No,                                     !- Run Simulation for Sizing Periods
  Yes,                                    !- Run Simulation for Weather File Run Periods
  ,                                       !- Loads Convergence Tolerance Value {W}
  ,                                       !- Temperature Convergence Tolerance Value {deltaC}
  ,                                       !- Solar Distribution
  ,                                       !- Maximum Number of Warmup Days
  ,                                       !- Minimum Number of Warmup Days
  No,                                     !- Do HVAC Sizing Simulation for Sizing Periods
  1;                                      !- Maximum Number of HVAC Sizing Simulation Passes

OS:Sizing:Parameters,
  {29436e77-c269-40cd-9d75-1d7fdcf09fe9}, !- Handle
  1.25,                                   !- Heating Sizing Factor
  1.15;                                   !- Cooling Sizing Factor

OS:Timestep,
  {528079e5-7592-43af-a981-7957f5c08845}, !- Handle
  1;                                      !- Number of Timesteps per Hour

OS:ShadowCalculation,
  {daa20a26-4738-47c5-9120-09d1636d2c2a}, !- Handle
  PolygonClipping,                        !- Shading Calculation Method
  ,                                       !- Shading Calculation Update Frequency Method
  20,                                     !- Shading Calculation Update Frequency
  15000,                                  !- Maximum Figures in Shadow Overlap Calculations
  ,                                       !- Polygon Clipping Algorithm
  512,                                    !- Pixel Counting Resolution
  ,                                       !- Sky Diffuse Modeling Algorithm
  No,                                     !- Output External Shading Calculation Results
  No,                                     !- Disable Self-Shading Within Shading Zone Groups
  No;                                     !- Disable Self-Shading From Shading Zone Groups to Other Zones

OS:HeatBalanceAlgorithm,
  {c611a2b4-11b8-4801-890b-a3e54bc24894}, !- Handle
  ConductionTransferFunction,             !- Algorithm
  200;                                    !- Surface Temperature Upper Limit {C}

OS:RunPeriod,
  {a1e45883-61db-4daa-b7c8-83096c33f1ad}, !- Handle
  Run Period 1,                           !- Name
  1,                                      !- Begin Month
  1,                                      !- Begin Day of Month
  12,                                     !- End Month
  31,                                     !- End Day of Month
  ,                                       !- Use Weather File Holidays and Special Days
  ,                                       !- Use Weather File Daylight Saving Period
  ,                                       !- Apply Weekend Holiday Rule
  ,                                       !- Use Weather File Rain Indicators
  ,                                       !- Use Weather File Snow Indicators
  ;                                       !- Number of Times Runperiod to be Repeated

OS:LifeCycleCost:Parameters,
  {b85005a5-dfc5-48d2-9560-286ca3c64b3c}, !- Handle
  ,                                       !- Analysis Type
  ,                                       !- Discounting Convention
  ,                                       !- Inflation Approach
  ,                                       !- Real Discount Rate
  ,                                       !- Nominal Discount Rate
  ,                                       !- Inflation
  ,                                       !- Base Date Month
  ,                                       !- Base Date Year
  ,                                       !- Service Date Month
  ,                                       !- Service Date Year
  ;                                       !- Length of Study Period in Years

OS:YearDescription,
  {f60d58b8-adcf-41e2-ac8c-f935a3ff0c3e}, !- Handle
  2017,                                   !- Calendar Year
  ,                                       !- Day of Week for Start Day
  ;                                       !- Is Leap Year

OS:WeatherFile,
  {c8c84be7-9682-40bb-a895-a8e535195b25}, !- Handle
  Buffalo Niagara Intl Ap,                !- City
  NY,                                     !- State Province Region
  USA,                                    !- Country
  TMY3,                                   !- Data Source
  725280,                                 !- WMO Number
  42.93,                                  !- Latitude {deg}
  -78.73,                                 !- Longitude {deg}
  -5,                                     !- Time Zone {hr}
  215,                                    !- Elevation {m}
  /Users/nlong/working/dissertation-analysis/dc/analysis/esbe/activity_3/coincident/weather/USA_NY_Buffalo-Greater.Buffalo.Intl.AP.725280_TMY3.epw, !- Url
  ;                                       !- Checksum

OS:Site:WaterMainsTemperature,
  {9bd2a635-5666-455f-8722-f2e791a126af}, !- Handle
  Correlation,                            !- Calculation Method
  ,                                       !- Temperature Schedule Name
  8.96666666666667,                       !- Annual Average Outdoor Air Temperature {C}
  26.2;                                   !- Maximum Difference In Monthly Average Outdoor Air Temperatures {deltaC}

OS:SizingPeriod:DesignDay,
  {d35d3415-ec2b-40cc-8e03-772e0db5057f}, !- Handle
  Buffalo Niagara Intl Ap Ann Clg .4% Condns DB=>MWB 1, !- Name
  30.3,                                   !- Maximum Dry-Bulb Temperature {C}
  9.3,                                    !- Daily Dry-Bulb Temperature Range {deltaC}
  98769,                                  !- Barometric Pressure {Pa}
  5.7,                                    !- Wind Speed {m/s}
  240,                                    !- Wind Direction {deg}
  ,                                       !- Sky Clearness
  No,                                     !- Rain Indicator
  No,                                     !- Snow Indicator
  21,                                     !- Day of Month
  7,                                      !- Month
  SummerDesignDay,                        !- Day Type
  No,                                     !- Daylight Saving Time Indicator
  Wetbulb,                                !- Humidity Condition Type
  ,                                       !- Humidity Condition Day Schedule Name
  21.8,                                   !- Wetbulb or DewPoint at Maximum Dry-Bulb {C}
  ,                                       !- Humidity Ratio at Maximum Dry-Bulb {kgWater/kgDryAir}
  ,                                       !- Enthalpy at Maximum Dry-Bulb {J/kg}
  DefaultMultipliers,                     !- Dry-Bulb Temperature Range Modifier Type
  ,                                       !- Dry-Bulb Temperature Range Modifier Day Schedule Name
  ASHRAETau,                              !- Solar Model Indicator
  ,                                       !- Beam Solar Day Schedule Name
  ,                                       !- Diffuse Solar Day Schedule Name
  0.462,                                  !- ASHRAE Clear Sky Optical Depth for Beam Irradiance {dimensionless}
  2.001;                                  !- ASHRAE Clear Sky Optical Depth for Diffuse Irradiance {dimensionless}

OS:SizingPeriod:DesignDay,
  {4a4309a1-df85-4f2b-b754-0a2aabf3cad1}, !- Handle
  Buffalo Niagara Intl Ap Ann Clg .4% Condns WB=>MDB 1, !- Name
  27.8,                                   !- Maximum Dry-Bulb Temperature {C}
  9.3,                                    !- Daily Dry-Bulb Temperature Range {deltaC}
  98769,                                  !- Barometric Pressure {Pa}
  5.7,                                    !- Wind Speed {m/s}
  240,                                    !- Wind Direction {deg}
  ,                                       !- Sky Clearness
  No,                                     !- Rain Indicator
  No,                                     !- Snow Indicator
  21,                                     !- Day of Month
  7,                                      !- Month
  SummerDesignDay,                        !- Day Type
  No,                                     !- Daylight Saving Time Indicator
  Wetbulb,                                !- Humidity Condition Type
  ,                                       !- Humidity Condition Day Schedule Name
  23.8,                                   !- Wetbulb or DewPoint at Maximum Dry-Bulb {C}
  ,                                       !- Humidity Ratio at Maximum Dry-Bulb {kgWater/kgDryAir}
  ,                                       !- Enthalpy at Maximum Dry-Bulb {J/kg}
  DefaultMultipliers,                     !- Dry-Bulb Temperature Range Modifier Type
  ,                                       !- Dry-Bulb Temperature Range Modifier Day Schedule Name
  ASHRAETau,                              !- Solar Model Indicator
  ,                                       !- Beam Solar Day Schedule Name
  ,                                       !- Diffuse Solar Day Schedule Name
  0.462,                                  !- ASHRAE Clear Sky Optical Depth for Beam Irradiance {dimensionless}
  2.001;                                  !- ASHRAE Clear Sky Optical Depth for Diffuse Irradiance {dimensionless}

OS:SizingPeriod:DesignDay,
  {7bdad080-c51d-41f4-b38f-c04dee3b5288}, !- Handle
  Buffalo Niagara Intl Ap Ann Htg 99.6% Condns DB 1, !- Name
  -16.3,                                  !- Maximum Dry-Bulb Temperature {C}
  0,                                      !- Daily Dry-Bulb Temperature Range {deltaC}
  98769,                                  !- Barometric Pressure {Pa}
  5.1,                                    !- Wind Speed {m/s}
  270,                                    !- Wind Direction {deg}
  0,                                      !- Sky Clearness
  No,                                     !- Rain Indicator
  No,                                     !- Snow Indicator
  21,                                     !- Day of Month
  1,                                      !- Month
  WinterDesignDay,                        !- Day Type
  No,                                     !- Daylight Saving Time Indicator
  Wetbulb,                                !- Humidity Condition Type
  ,                                       !- Humidity Condition Day Schedule Name
  -16.3,                                  !- Wetbulb or DewPoint at Maximum Dry-Bulb {C}
  ,                                       !- Humidity Ratio at Maximum Dry-Bulb {kgWater/kgDryAir}
  ,                                       !- Enthalpy at Maximum Dry-Bulb {J/kg}
  DefaultMultipliers,                     !- Dry-Bulb Temperature Range Modifier Type
  ,                                       !- Dry-Bulb Temperature Range Modifier Day Schedule Name
  ASHRAEClearSky;                         !- Solar Model Indicator

OS:ClimateZones,
  {801b8269-927f-4566-97de-82cdf578c67f}, !- Handle
  ASHRAE,                                 !- Climate Zone Institution Name 1
  ANSI/ASHRAE Standard 169,               !- Climate Zone Document Name 1
  2006,                                   !- Climate Zone Document Year 1
  6A;                                     !- Climate Zone Value 1

OS:Rendering:Color,
  {26057098-600b-42d3-a202-b53533424b89}, !- Handle
  Office WholeBuilding - Sm Office,       !- Name
  120,                                    !- Rendering Red Value
  230,                                    !- Rendering Green Value
  199;                                    !- Rendering Blue Value

OS:RunPeriodControl:DaylightSavingTime,
  {694a71e7-8223-465e-88dd-5d04f0aed595}, !- Handle
  2nd Sunday in March,                    !- Start Date
  1st Sunday in November;                 !- End Date

OS:People:Definition,
  {c9678917-6514-4eee-92a2-0d52b9e42624}, !- Handle
  Office WholeBuilding - Sm Office People Definition, !- Name
  People/Area,                            !- Number of People Calculation Method
  ,                                       !- Number of People {people}
  0.0602778983335744,                     !- People per Space Floor Area {person/m2}
  ,                                       !- Space Floor Area per Person {m2/person}
  0.3,                                    !- Fraction Radiant
  ,                                       !- Sensible Heat Fraction
  ,                                       !- Carbon Dioxide Generation Rate {m3/s-W}
  Yes,                                    !- Enable ASHRAE 55 Comfort Warnings
  ZoneAveraged,                           !- Mean Radiant Temperature Calculation Type
  Fanger;                                 !- Thermal Comfort Model Type 1

OS:Schedule:Ruleset,
  {e28dbe8c-4604-4f60-8b43-e01ba6d687a6}, !- Handle
  Clothing Schedule,                      !- Name
  {7151f13a-d03d-4f4e-86ac-c86b0f53261c}, !- Schedule Type Limits Name
  {907fcdeb-c7a2-4fb2-9975-3833850da6ee}; !- Default Day Schedule Name

OS:Schedule:Day,
  {907fcdeb-c7a2-4fb2-9975-3833850da6ee}, !- Handle
  Clothing Schedule Default Winter Clothes, !- Name
  {7151f13a-d03d-4f4e-86ac-c86b0f53261c}, !- Schedule Type Limits Name
  ,                                       !- Interpolate to Timestep
  24,                                     !- Hour 1
  0,                                      !- Minute 1
  1;                                      !- Value Until Time 1

OS:Schedule:Rule,
  {e4281a6c-7c48-4488-a384-9ba47c1b09e2}, !- Handle
  Schedule Rule 1,                        !- Name
  {e28dbe8c-4604-4f60-8b43-e01ba6d687a6}, !- Schedule Ruleset Name
  0,                                      !- Rule Order
  {4fc935eb-ccc2-4f66-b8fd-2e3b9d9faaca}, !- Day Schedule Name
  ,                                       !- Apply Sunday
  ,                                       !- Apply Monday
  ,                                       !- Apply Tuesday
  ,                                       !- Apply Wednesday
  ,                                       !- Apply Thursday
  ,                                       !- Apply Friday
  ,                                       !- Apply Saturday
  DateRange,                              !- Date Specification Type
  5,                                      !- Start Month
  1,                                      !- Start Day
  9,                                      !- End Month
  30;                                     !- End Day

OS:Schedule:Day,
  {4fc935eb-ccc2-4f66-b8fd-2e3b9d9faaca}, !- Handle
  Clothing Schedule Summer Clothes,       !- Name
  {7151f13a-d03d-4f4e-86ac-c86b0f53261c}, !- Schedule Type Limits Name
  ,                                       !- Interpolate to Timestep
  24,                                     !- Hour 1
  0,                                      !- Minute 1
  0.5;                                    !- Value Until Time 1

OS:ScheduleTypeLimits,
  {7151f13a-d03d-4f4e-86ac-c86b0f53261c}, !- Handle
  ClothingInsulation,                     !- Name
  0,                                      !- Lower Limit Value
  ,                                       !- Upper Limit Value
  Continuous,                             !- Numeric Type
  ClothingInsulation;                     !- Unit Type

OS:Schedule:Ruleset,
  {f270d015-547f-4a5d-bb0c-06fd5433119c}, !- Handle
  Air Velocity Schedule,                  !- Name
  {34c3a465-6c75-48e5-be8d-02660987b9a3}, !- Schedule Type Limits Name
  {825b1ca7-35e5-4e08-9d98-3f468599dc6d}; !- Default Day Schedule Name

OS:Schedule:Day,
  {825b1ca7-35e5-4e08-9d98-3f468599dc6d}, !- Handle
  Air Velocity Schedule Default,          !- Name
  {34c3a465-6c75-48e5-be8d-02660987b9a3}, !- Schedule Type Limits Name
  ,                                       !- Interpolate to Timestep
  24,                                     !- Hour 1
  0,                                      !- Minute 1
  0.2;                                    !- Value Until Time 1

OS:ScheduleTypeLimits,
  {34c3a465-6c75-48e5-be8d-02660987b9a3}, !- Handle
  Velocity,                               !- Name
  0,                                      !- Lower Limit Value
  ,                                       !- Upper Limit Value
  Continuous,                             !- Numeric Type
  Velocity;                               !- Unit Type

OS:Schedule:Ruleset,
  {dc755c43-337e-4dd4-a2d4-e006f256e0b6}, !- Handle
  Work Efficiency Schedule,               !- Name
  {c6c24b0f-cb2b-4343-b85a-a2f9e0bea360}, !- Schedule Type Limits Name
  {5752d5af-0d58-4960-bbb5-9d0ee8a7733b}; !- Default Day Schedule Name

OS:Schedule:Day,
  {5752d5af-0d58-4960-bbb5-9d0ee8a7733b}, !- Handle
  Work Efficiency Schedule Default,       !- Name
  {c6c24b0f-cb2b-4343-b85a-a2f9e0bea360}, !- Schedule Type Limits Name
  ,                                       !- Interpolate to Timestep
  24,                                     !- Hour 1
  0,                                      !- Minute 1
  0;                                      !- Value Until Time 1

OS:ScheduleTypeLimits,
  {c6c24b0f-cb2b-4343-b85a-a2f9e0bea360}, !- Handle
  Fractional,                             !- Name
  0,                                      !- Lower Limit Value
  1,                                      !- Upper Limit Value
  Continuous;                             !- Numeric Type

OS:Lights:Definition,
  {22654d22-f7a5-48b0-835e-31479d3e37dd}, !- Handle
  Office WholeBuilding - Sm Office Lights Definition, !- Name
  Watts/Area,                             !- Design Level Calculation Method
  ,                                       !- Lighting Level {W}
  8.82640654170197,                       !- Watts per Space Floor Area {W/m2}
  ,                                       !- Watts per Person {W/person}
  0.7,                                    !- Fraction Radiant
  0.2,                                    !- Fraction Visible
  0;                                      !- Return Air Fraction

OS:AdditionalProperties,
  {d979f023-8608-4131-84a4-325f4d4470c8}, !- Handle
  {22654d22-f7a5-48b0-835e-31479d3e37dd}, !- Object Name
  lpd_fraction_linear_fluorescent,        !- Feature Name 1
  Double,                                 !- Feature Data Type 1
  1;                                      !- Feature Value 1

OS:ElectricEquipment:Definition,
  {e7195099-56a3-4b5a-a562-9d75e11167b9}, !- Handle
  Office WholeBuilding - Sm Office Elec Equip Definition, !- Name
  Watts/Area,                             !- Design Level Calculation Method
  ,                                       !- Design Level {W}
  6.78126356252712,                       !- Watts per Space Floor Area {W/m2}
  ,                                       !- Watts per Person {W/person}
  0,                                      !- Fraction Latent
  0,                                      !- Fraction Radiant
  0;                                      !- Fraction Lost

OS:DesignSpecification:OutdoorAir,
  {26159d13-557a-4bd9-84e2-4bfeb2faafa6}, !- Handle
  Office WholeBuilding - Sm Office Ventilation, !- Name
  Sum,                                    !- Outdoor Air Method
  ,                                       !- Outdoor Air Flow per Person {m3/s-person}
  0.0004318,                              !- Outdoor Air Flow per Floor Area {m3/s-m2}
  ,                                       !- Outdoor Air Flow Rate {m3/s}
  ,                                       !- Outdoor Air Flow Air Changes per Hour {1/hr}
  ;                                       !- Outdoor Air Flow Rate Fraction Schedule Name

OS:DefaultScheduleSet,
  {2a703d59-c4d4-49ee-b1a0-57ca07d4c857}, !- Handle
  Office WholeBuilding - Sm Office Schedule Set, !- Name
  ,                                       !- Hours of Operation Schedule Name
  {a22f47ff-93e2-4c05-8c6a-0799764a4541}, !- Number of People Schedule Name
  {104c5ce3-8dac-4656-80e4-edbf40af37da}, !- People Activity Level Schedule Name
  {df46f182-e1ab-4e60-870e-4f7abe01177a}, !- Lighting Schedule Name
  {cc2badfe-af4b-4a01-8b2f-0faa0e07a9c0}, !- Electric Equipment Schedule Name
  ,                                       !- Gas Equipment Schedule Name
  ,                                       !- Hot Water Equipment Schedule Name
  {a8a6c981-b7fa-4d57-99e4-71abb5044bcc}, !- Infiltration Schedule Name
  ,                                       !- Steam Equipment Schedule Name
  ;                                       !- Other Equipment Schedule Name

OS:Schedule:Ruleset,
  {a22f47ff-93e2-4c05-8c6a-0799764a4541}, !- Handle
  OfficeSmall BLDG_OCC_SCH,               !- Name
  {c6c24b0f-cb2b-4343-b85a-a2f9e0bea360}, !- Schedule Type Limits Name
  {2bce0227-f0a0-4f2f-a9b4-9a931270df3a}, !- Default Day Schedule Name
  {40165f86-750d-4fc9-b4b4-9c8bd080c05e}, !- Summer Design Day Schedule Name
  {1a97c653-1b27-4ce0-ade8-7886597c88c2}; !- Winter Design Day Schedule Name

OS:Schedule:Day,
  {2bce0227-f0a0-4f2f-a9b4-9a931270df3a}, !- Handle
  OfficeSmall BLDG_OCC_SCH Default,       !- Name
  {c6c24b0f-cb2b-4343-b85a-a2f9e0bea360}, !- Schedule Type Limits Name
  Yes,                                    !- Interpolate to Timestep
  9,                                      !- Hour 1
  0,                                      !- Minute 1
  0,                                      !- Value Until Time 1
  24,                                     !- Hour 2
  0,                                      !- Minute 2
  0;                                      !- Value Until Time 2

OS:Schedule:Day,
  {1a97c653-1b27-4ce0-ade8-7886597c88c2}, !- Handle
  OfficeSmall BLDG_OCC_SCH Winter Design Day, !- Name
  {c6c24b0f-cb2b-4343-b85a-a2f9e0bea360}, !- Schedule Type Limits Name
  ,                                       !- Interpolate to Timestep
  24,                                     !- Hour 1
  0,                                      !- Minute 1
  0;                                      !- Value Until Time 1

OS:Schedule:Day,
  {40165f86-750d-4fc9-b4b4-9c8bd080c05e}, !- Handle
  OfficeSmall BLDG_OCC_SCH Summer Design Day, !- Name
  {c6c24b0f-cb2b-4343-b85a-a2f9e0bea360}, !- Schedule Type Limits Name
  ,                                       !- Interpolate to Timestep
  24,                                     !- Hour 1
  0,                                      !- Minute 1
  1;                                      !- Value Until Time 1

OS:Schedule:Rule,
  {0ec3515f-655e-4d02-b76e-3c236869bd58}, !- Handle
  Schedule Rule 2,                        !- Name
  {a22f47ff-93e2-4c05-8c6a-0799764a4541}, !- Schedule Ruleset Name
  0,                                      !- Rule Order
  {f8a4ef80-74f4-4226-8745-d5973f19a141}, !- Day Schedule Name
  ,                                       !- Apply Sunday
  Yes,                                    !- Apply Monday
  Yes,                                    !- Apply Tuesday
  Yes,                                    !- Apply Wednesday
  Yes,                                    !- Apply Thursday
  Yes,                                    !- Apply Friday
  ,                                       !- Apply Saturday
  DateRange,                              !- Date Specification Type
  1,                                      !- Start Month
  1,                                      !- Start Day
  12,                                     !- End Month
  31;                                     !- End Day

OS:Schedule:Day,
  {f8a4ef80-74f4-4226-8745-d5973f19a141}, !- Handle
  OfficeSmall BLDG_OCC_SCH Wkdy Day,      !- Name
  {c6c24b0f-cb2b-4343-b85a-a2f9e0bea360}, !- Schedule Type Limits Name
  Yes,                                    !- Interpolate to Timestep
  6,                                      !- Hour 1
  30,                                     !- Minute 1
  0,                                      !- Value Until Time 1
  7,                                      !- Hour 2
  30,                                     !- Minute 2
  0.11,                                   !- Value Until Time 2
  8,                                      !- Hour 3
  30,                                     !- Minute 3
  0.21,                                   !- Value Until Time 3
  9,                                      !- Hour 4
  30,                                     !- Minute 4
  1,                                      !- Value Until Time 4
  11,                                     !- Hour 5
  30,                                     !- Minute 5
  1,                                      !- Value Until Time 5
  12,                                     !- Hour 6
  30,                                     !- Minute 6
  0.53,                                   !- Value Until Time 6
  13,                                     !- Hour 7
  30,                                     !- Minute 7
  1,                                      !- Value Until Time 7
  15,                                     !- Hour 8
  30,                                     !- Minute 8
  1,                                      !- Value Until Time 8
  16,                                     !- Hour 9
  30,                                     !- Minute 9
  0.32,                                   !- Value Until Time 9
  17,                                     !- Hour 10
  30,                                     !- Minute 10
  0.11,                                   !- Value Until Time 10
  20,                                     !- Hour 11
  30,                                     !- Minute 11
  0.11,                                   !- Value Until Time 11
  21,                                     !- Hour 12
  30,                                     !- Minute 12
  0.05,                                   !- Value Until Time 12
  22,                                     !- Hour 13
  30,                                     !- Minute 13
  0,                                      !- Value Until Time 13
  24,                                     !- Hour 14
  0,                                      !- Minute 14
  0;                                      !- Value Until Time 14

OS:Schedule:Ruleset,
  {104c5ce3-8dac-4656-80e4-edbf40af37da}, !- Handle
  OfficeSmall ACTIVITY_SCH,               !- Name
  {b068fd64-01b0-4efd-943e-d13e24123d0f}, !- Schedule Type Limits Name
  {b1033425-7cbf-4290-ba35-748409ff5565}, !- Default Day Schedule Name
  {35b76d45-c391-4da8-81b6-e0b6ee8c50fe}, !- Summer Design Day Schedule Name
  {5a491b01-91fe-4e20-9f67-ce80cd9fde87}; !- Winter Design Day Schedule Name

OS:Schedule:Day,
  {b1033425-7cbf-4290-ba35-748409ff5565}, !- Handle
  OfficeSmall ACTIVITY_SCH Default,       !- Name
  {b068fd64-01b0-4efd-943e-d13e24123d0f}, !- Schedule Type Limits Name
  Yes,                                    !- Interpolate to Timestep
  24,                                     !- Hour 1
  0,                                      !- Minute 1
  120;                                    !- Value Until Time 1

OS:Schedule:Day,
  {5a491b01-91fe-4e20-9f67-ce80cd9fde87}, !- Handle
  OfficeSmall ACTIVITY_SCH Winter Design Day, !- Name
  {b068fd64-01b0-4efd-943e-d13e24123d0f}, !- Schedule Type Limits Name
  ,                                       !- Interpolate to Timestep
  24,                                     !- Hour 1
  0,                                      !- Minute 1
  120;                                    !- Value Until Time 1

OS:Schedule:Day,
  {35b76d45-c391-4da8-81b6-e0b6ee8c50fe}, !- Handle
  OfficeSmall ACTIVITY_SCH Summer Design Day, !- Name
  {b068fd64-01b0-4efd-943e-d13e24123d0f}, !- Schedule Type Limits Name
  ,                                       !- Interpolate to Timestep
  24,                                     !- Hour 1
  0,                                      !- Minute 1
  120;                                    !- Value Until Time 1

OS:ScheduleTypeLimits,
  {b068fd64-01b0-4efd-943e-d13e24123d0f}, !- Handle
  ActivityLevel,                          !- Name
  0,                                      !- Lower Limit Value
  ,                                       !- Upper Limit Value
  Continuous,                             !- Numeric Type
  ActivityLevel;                          !- Unit Type

OS:Schedule:Ruleset,
  {df46f182-e1ab-4e60-870e-4f7abe01177a}, !- Handle
  OfficeSmall BLDG_LIGHT_SCH_2013,        !- Name
  {c6c24b0f-cb2b-4343-b85a-a2f9e0bea360}, !- Schedule Type Limits Name
  {a97de6cf-94d3-418b-84db-68706556c9aa}, !- Default Day Schedule Name
  {59d3cd38-17d8-49da-affb-50d342e0a643}, !- Summer Design Day Schedule Name
  {feebc572-8c60-47e5-91b4-5e173e82aa49}; !- Winter Design Day Schedule Name

OS:Schedule:Day,
  {a97de6cf-94d3-418b-84db-68706556c9aa}, !- Handle
  OfficeSmall BLDG_LIGHT_SCH_2013 Default, !- Name
  {c6c24b0f-cb2b-4343-b85a-a2f9e0bea360}, !- Schedule Type Limits Name
  Yes,                                    !- Interpolate to Timestep
  5,                                      !- Hour 1
  30,                                     !- Minute 1
  0.18,                                   !- Value Until Time 1
  6,                                      !- Hour 2
  30,                                     !- Minute 2
  0.23,                                   !- Value Until Time 2
  7,                                      !- Hour 3
  30,                                     !- Minute 3