
OS:Version,
  {772634bd-f242-4642-ae2a-19ae838c6e70}, !- Handle
  3.5.1;                                  !- Version Identifier

OS:Facility,
  {5ff2ed27-5fe0-4256-8455-1260f64b96ae}; !- Handle

OS:LifeCycleCost:Parameters,
  {f08af1c8-0959-4937-aed7-04eeab3a4885}, !- Handle
  ,                                       !- Analysis Type
  ,                                       !- Discounting Convention
  ,                                       !- Inflation Approach
  ,                                       !- Real Discount Rate
  ,                                       !- Nominal Discount Rate
  ,                                       !- Inflation
  ,                                       !- Base Date Month
  ,                                       !- Base Date Year
  ,                                       !- Service Date Month
  ,                                       !- Service Date Year
  ;                                       !- Length of Study Period in Years

OS:SpaceType,
  {e76a8e5a-9393-4f24-a29a-8ab28acceb95}, !- Handle
  Space Type 3,                           !- Name
  ,                                       !- Default Construction Set Name
  ,                                       !- Default Schedule Set Name
  ,                                       !- Group Rendering Name
  ,                                       !- Design Specification Outdoor Air Object Name
  ,                                       !- Standards Template
  Single-Family Detached,                 !- Standards Building Type
  living space 1;                         !- Standards Space Type

OS:SpaceType,
  {26e7e83d-730c-42a0-90ef-5b28b70c437d}, !- Handle
  Space Type 2,                           !- Name
  ,                                       !- Default Construction Set Name
  ,                                       !- Default Schedule Set Name
  ,                                       !- Group Rendering Name
  ,                                       !- Design Specification Outdoor Air Object Name
  ,                                       !- Standards Template
  ,                                       !- Standards Building Type
  attic - vented 1;                       !- Standards Space Type

OS:SpaceType,
  {7978d8e0-50f3-45e0-a126-7d3fbac83f0f}, !- Handle
  Space Type 1,                           !- Name
  ,                                       !- Default Construction Set Name
  ,                                       !- Default Schedule Set Name
  ,                                       !- Group Rendering Name
  ,                                       !- Design Specification Outdoor Air Object Name
  ,                                       !- Standards Template
  ,                                       !- Standards Building Type
  crawlspace - unvented 1;                !- Standards Space Type

OS:Output:JSON,
  {ea31f5d4-0283-4fb0-8f3e-f6c333af49d0}, !- Handle
  TimeSeriesAndTabular,                   !- Option Type
  No,                                     !- Output JSON
  No,                                     !- Output CBOR
  Yes;                                    !- Output MessagePack

OS:EnergyManagementSystem:ProgramCallingManager,
  {cfc7ee1a-c439-4282-b7bc-96732819c8ce}, !- Handle
  total_loads_program calling manager,    !- Name
  EndOfZoneTimestepAfterZoneReporting,    !- EnergyPlus Model Calling Point
  {23188f6f-9084-426c-9305-ac26b68171a4}; !- Program Name 1

OS:EnergyManagementSystem:Program,
  {23188f6f-9084-426c-9305-ac26b68171a4}, !- Handle
  total_loads_program,                    !- Name
  Set loads_htg_tot = 0,                  !- Program Line 1
  Set loads_clg_tot = 0,                  !- Program Line 2
  If htg_load_liv > 0,                    !- Program Line 3
  Set loads_htg_tot = htg_load_tot - clg_load_tot, !- Program Line 4
  ElseIf clg_load_liv > 0,                !- Program Line 5
  Set loads_clg_tot = clg_load_tot - htg_load_tot, !- Program Line 6
  EndIf;                                  !- Program Line 7

OS:EnergyManagementSystem:Sensor,
  {91b01d21-3b4d-4f96-b267-900713ba39e0}, !- Handle
  clg_load_tot,                           !- Name
  ,                                       !- Output Variable or Output Meter Index Key Name
  Cooling:EnergyTransfer;                 !- Output Variable or Output Meter Name

OS:EnergyManagementSystem:Sensor,
  {9270cf70-cb84-4820-af8a-78f3a80d75f2}, !- Handle
  htg_load_tot,                           !- Name
  ,                                       !- Output Variable or Output Meter Index Key Name
  Heating:EnergyTransfer;                 !- Output Variable or Output Meter Name

OS:EnergyManagementSystem:Sensor,
  {bca2c5c3-4027-46fc-9480-af1bf71f774c}, !- Handle
  clg_load_liv,                           !- Name
  ,                                       !- Output Variable or Output Meter Index Key Name
  Cooling:EnergyTransfer:Zone:LIVING SPACE; !- Output Variable or Output Meter Name

OS:EnergyManagementSystem:Sensor,
  {259e3d2f-ff6d-4471-838f-5cbf5351b97e}, !- Handle
  htg_load_liv,                           !- Name
  ,                                       !- Output Variable or Output Meter Index Key Name
  Heating:EnergyTransfer:Zone:LIVING SPACE; !- Output Variable or Output Meter Name

OS:EnergyManagementSystem:ProgramCallingManager,
  {dad5879b-4b03-458e-bb5a-554d4a9be152}, !- Handle
  unmet_hours_program calling manager,    !- Name
  EndOfZoneTimestepBeforeZoneReporting,   !- EnergyPlus Model Calling Point
  {a456dc8c-3382-4468-bf2d-073c47e77bce}; !- Program Name 1

OS:EnergyManagementSystem:Program,
  {a456dc8c-3382-4468-bf2d-073c47e77bce}, !- Handle
  unmet_hours_program,                    !- Name
  Set htg_unmet_hours = 0,                !- Program Line 1
  Set clg_unmet_hours = 0,                !- Program Line 2
  If (DayOfYear >= 1) && (DayOfYear <= 365), !- Program Line 3
  Set htg_unmet_hours = htg_unmet_hours + zone_htg_unmet_s, !- Program Line 4
  EndIf;                                  !- Program Line 5

OS:EnergyManagementSystem:Sensor,
  {2f23d850-85d4-4d06-b46c-83a5851bae52}, !- Handle
  zone_clg_unmet_s,                       !- Name
  living space,                           !- Output Variable or Output Meter Index Key Name
  Zone Cooling Setpoint Not Met Time;     !- Output Variable or Output Meter Name

OS:EnergyManagementSystem:Sensor,
  {bcea7569-44a2-4a95-ac20-4b41ce8d33f2}, !- Handle
  zone_htg_unmet_s,                       !- Name
  living space,                           !- Output Variable or Output Meter Index Key Name
  Zone Heating Setpoint Not Met Time;     !- Output Variable or Output Meter Name

OS:AdditionalProperties,
  {086e2210-e84a-4ea8-bcc7-656f6c4e842f}, !- Handle
  {11d841ca-93a4-4c0c-b092-70c2c9b0a919}, !- Object Name
  hpxml_path,                             !- Feature Name 1
  String,                                 !- Feature Data Type 1
  /Users/nlong/working/dissertation-analysis/dc/analysis/esbe/activity_3/coincident/run/baseline_scenario/17/unit 1.xml, !- Feature Value 1
  hpxml_defaults_path,                    !- Feature Name 2
  String,                                 !- Feature Data Type 2
  /Users/nlong/working/dissertation-analysis/dc/analysis/esbe/activity_3/coincident/run/baseline_scenario/17/in.xml, !- Feature Value 2
  building_id,                            !- Feature Name 3
  String,                                 !- Feature Data Type 3
  ,                                       !- Feature Value 3
  emissions_scenario_names,               !- Feature Name 4
  String,                                 !- Feature Data Type 4
  [],                                     !- Feature Value 4
  emissions_scenario_types,               !- Feature Name 5
  String,                                 !- Feature Data Type 5
  [],                                     !- Feature Value 5
  has_heating,                            !- Feature Name 6
  Boolean,                                !- Feature Data Type 6
  true,                                   !- Feature Value 6
  has_cooling,                            !- Feature Name 7
  Boolean,                                !- Feature Data Type 7
  false,                                  !- Feature Value 7
  NumberOfConditionedStories,             !- Feature Name 8
  Integer,                                !- Feature Data Type 8
  2;                                      !- Feature Value 8

OS:Building,
  {11d841ca-93a4-4c0c-b092-70c2c9b0a919}, !- Handle
  Building 1,                             !- Name
  ,                                       !- Building Sector Type
  ,                                       !- North Axis {deg}
  8,                                      !- Nominal Floor to Floor Height {m}
  ,                                       !- Space Type Name
  ,                                       !- Default Construction Set Name
  ,                                       !- Default Schedule Set Name
  2,                                      !- Standards Number of Stories
  2,                                      !- Standards Number of Above Ground Stories
  ,                                       !- Standards Template
  Residential,                            !- Standards Building Type
  1;                                      !- Standards Number of Living Units

OS:EnergyManagementSystem:ProgramCallingManager,
  {0af61191-107c-4110-8c00-39844bfc6e2f}, !- Handle
  infil_program calling manager,          !- Name
  BeginZoneTimestepAfterInitHeatBalance,  !- EnergyPlus Model Calling Point
  {06da608c-6a0f-41eb-8a94-3ff9ca5c5680}; !- Program Name 1

OS:EnergyManagementSystem:Sensor,
  {49a3a835-9751-4911-ac9b-cbb24e71ce3d}, !- Handle
  clothes_dryer_exhaust_0_sch_s,          !- Name
  clothes dryer 1,                        !- Output Variable or Output Meter Index Key Name
  Schedule Value;                         !- Output Variable or Output Meter Name

OS:Schedule:Day,
  {325ab397-5921-4254-899b-cc0a93351aa4}, !- Handle
  clothes dryer allday1 1,                !- Name
  {a8663697-55d2-41a5-a14c-ecafcd343e22}, !- Schedule Type Limits Name
  ,                                       !- Interpolate to Timestep
  1,                                      !- Hour 1
  0,                                      !- Minute 1
  0.123456790123457,                      !- Value Until Time 1
  2,                                      !- Hour 2
  0,                                      !- Minute 2
  0.0740740740740741,                     !- Value Until Time 2
  3,                                      !- Hour 3
  0,                                      !- Minute 3
  0.0493827160493827,                     !- Value Until Time 3
  4,                                      !- Hour 4
  0,                                      !- Minute 4
  0.0246913580246914,                     !- Value Until Time 4
  5,                                      !- Hour 5
  0,                                      !- Minute 5
  0.0493827160493827,                     !- Value Until Time 5
  6,                                      !- Hour 6
  0,                                      !- Minute 6
  0.0740740740740741,                     !- Value Until Time 6
  7,                                      !- Hour 7
  0,                                      !- Minute 7
  0.197530864197531,                      !- Value Until Time 7
  8,                                      !- Hour 8
  0,                                      !- Minute 8
  0.395061728395062,                      !- Value Until Time 8
  9,                                      !- Hour 9
  0,                                      !- Minute 9
  0.592592592592593,                      !- Value Until Time 9
  10,                                     !- Hour 10
  0,                                      !- Minute 10
  0.839506172839506,                      !- Value Until Time 10
  11,                                     !- Hour 11
  0,                                      !- Minute 11
  0.962962962962963,                      !- Value Until Time 11
  12,                                     !- Hour 12
  0,                                      !- Minute 12
  1,                                      !- Value Until Time 12
  13,                                     !- Hour 13
  0,                                      !- Minute 13
  0.91358024691358,                       !- Value Until Time 13
  14,                                     !- Hour 14
  0,                                      !- Minute 14
  0.827160493827161,                      !- Value Until Time 14
  15,                                     !- Hour 15
  0,                                      !- Minute 15
  0.703703703703704,                      !- Value Until Time 15
  16,                                     !- Hour 16
  0,                                      !- Minute 16
  0.753086419753086,                      !- Value Until Time 16
  17,                                     !- Hour 17
  0,                                      !- Minute 17
  0.679012345679012,                      !- Value Until Time 17
  18,                                     !- Hour 18
  0,                                      !- Minute 18
  0.666666666666667,                      !- Value Until Time 18
  20,                                     !- Hour 19
  0,                                      !- Minute 19
  0.62962962962963,                       !- Value Until Time 19
  21,                                     !- Hour 20
  0,                                      !- Minute 20
  0.641975308641975,                      !- Value Until Time 20
  22,                                     !- Hour 21
  0,                                      !- Minute 21
  0.666666666666667,                      !- Value Until Time 21
  23,                                     !- Hour 22
  0,                                      !- Minute 22
  0.54320987654321,                       !- Value Until Time 22
  24,                                     !- Hour 23
  0,                                      !- Minute 23
  0.296296296296296;                      !- Value Until Time 23

OS:Schedule:Rule,
  {c60fbfda-ee6e-4e34-908f-839c14ea7f09}, !- Handle
  clothes dryer allday ruleset1 1,        !- Name
  {16e5aa0c-8093-4c35-8294-c4df06d6a80c}, !- Schedule Ruleset Name
  0,                                      !- Rule Order
  {325ab397-5921-4254-899b-cc0a93351aa4}, !- Day Schedule Name
  Yes,                                    !- Apply Sunday
  Yes,                                    !- Apply Monday
  Yes,                                    !- Apply Tuesday
  Yes,                                    !- Apply Wednesday
  Yes,                                    !- Apply Thursday
  Yes,                                    !- Apply Friday
  Yes,                                    !- Apply Saturday
  DateRange,                              !- Date Specification Type
  1,                                      !- Start Month
  1,                                      !- Start Day
  12,                                     !- End Month
  31;                                     !- End Day

OS:Schedule:Day,
  {da75fce3-035c-4746-a2a1-de7f2d4dc5b7}, !- Handle
  Schedule Day 20,                        !- Name
  {a8663697-55d2-41a5-a14c-ecafcd343e22}, !- Schedule Type Limits Name
  ,                                       !- Interpolate to Timestep
  24,                                     !- Hour 1
  0,                                      !- Minute 1
  0;                                      !- Value Until Time 1

OS:Schedule:Ruleset,
  {16e5aa0c-8093-4c35-8294-c4df06d6a80c}, !- Handle
  clothes dryer 1,                        !- Name
  {a8663697-55d2-41a5-a14c-ecafcd343e22}, !- Schedule Type Limits Name
  {da75fce3-035c-4746-a2a1-de7f2d4dc5b7}; !- Default Day Schedule Name

OS:ElectricEquipment,
  {3bd4a918-690f-4d96-8d2b-f90ca06d6d0d}, !- Handle
  mech vent bath fan 0,                   !- Name
  {df47d83e-4ab2-46c6-9674-4de9ea8e1d12}, !- Electric Equipment Definition Name
  {f4a31aad-d118-4447-a7b6-f21d019dbc1f}, !- Space or SpaceType Name
  {eaa24e76-e7a0-43ae-a027-8d10b495515d}, !- Schedule Name
  ,                                       !- Multiplier
  mech vent;                              !- End-Use Subcategory

OS:ElectricEquipment:Definition,
  {df47d83e-4ab2-46c6-9674-4de9ea8e1d12}, !- Handle
  mech vent bath fan 0,                   !- Name
  EquipmentLevel,                         !- Design Level Calculation Method
  30,                                     !- Design Level {W}
  ,                                       !- Watts per Space Floor Area {W/m2}
  ,                                       !- Watts per Person {W/person}
  0,                                      !- Fraction Latent
  0,                                      !- Fraction Radiant
  1;                                      !- Fraction Lost

OS:EnergyManagementSystem:Sensor,
  {6cfae5d2-ba44-41b1-9c63-78fb203d700a}, !- Handle
  mech_vent_bath_fan_0_sch_s,             !- Name
  mech vent bath fan 0 schedule,          !- Output Variable or Output Meter Index Key Name
  Schedule Value;                         !- Output Variable or Output Meter Name

OS:Schedule:Day,
  {c9b291f2-e231-4de4-9fd1-5df19eb48f50}, !- Handle
  mech vent bath fan 0 schedule allday1,  !- Name
  {a8663697-55d2-41a5-a14c-ecafcd343e22}, !- Schedule Type Limits Name
  ,                                       !- Interpolate to Timestep
  7,                                      !- Hour 1
  0,                                      !- Minute 1
  0,                                      !- Value Until Time 1
  8,                                      !- Hour 2
  0,                                      !- Minute 2
  1,                                      !- Value Until Time 2
  24,                                     !- Hour 3
  0,                                      !- Minute 3
  0;                                      !- Value Until Time 3

OS:Schedule:Rule,
  {a49a25a0-03d0-435b-aca5-11725159d64f}, !- Handle
  mech vent bath fan 0 schedule allday ruleset1, !- Name
  {eaa24e76-e7a0-43ae-a027-8d10b495515d}, !- Schedule Ruleset Name
  0,                                      !- Rule Order
  {c9b291f2-e231-4de4-9fd1-5df19eb48f50}, !- Day Schedule Name
  Yes,                                    !- Apply Sunday
  Yes,                                    !- Apply Monday
  Yes,                                    !- Apply Tuesday
  Yes,                                    !- Apply Wednesday
  Yes,                                    !- Apply Thursday
  Yes,                                    !- Apply Friday
  Yes,                                    !- Apply Saturday
  DateRange,                              !- Date Specification Type
  1,                                      !- Start Month
  1,                                      !- Start Day
  12,                                     !- End Month
  31;                                     !- End Day

OS:Schedule:Day,
  {84bb9504-4478-4d43-9c00-ff1df3028c53}, !- Handle
  Schedule Day 19,                        !- Name
  {a8663697-55d2-41a5-a14c-ecafcd343e22}, !- Schedule Type Limits Name
  ,                                       !- Interpolate to Timestep
  24,                                     !- Hour 1
  0,                                      !- Minute 1
  0;                                      !- Value Until Time 1

OS:Schedule:Ruleset,
  {eaa24e76-e7a0-43ae-a027-8d10b495515d}, !- Handle
  mech vent bath fan 0 schedule,          !- Name
  {a8663697-55d2-41a5-a14c-ecafcd343e22}, !- Schedule Type Limits Name
  {84bb9504-4478-4d43-9c00-ff1df3028c53}; !- Default Day Schedule Name

OS:ElectricEquipment,
  {31bfe0a5-1db3-4642-a300-14d7c7350732}, !- Handle
  mech vent range fan 0,                  !- Name
  {27a3af5e-4c38-4f26-9f8d-c6a36bc1c4b1}, !- Electric Equipment Definition Name
  {f4a31aad-d118-4447-a7b6-f21d019dbc1f}, !- Space or SpaceType Name
  {4dfa9448-7564-4190-831a-af143351246a}, !- Schedule Name
  ,                                       !- Multiplier
  mech vent;                              !- End-Use Subcategory

OS:ElectricEquipment:Definition,
  {27a3af5e-4c38-4f26-9f8d-c6a36bc1c4b1}, !- Handle
  mech vent range fan 0,                  !- Name
  EquipmentLevel,                         !- Design Level Calculation Method
  30,                                     !- Design Level {W}
  ,                                       !- Watts per Space Floor Area {W/m2}
  ,                                       !- Watts per Person {W/person}
  0,                                      !- Fraction Latent
  0,                                      !- Fraction Radiant
  1;                                      !- Fraction Lost

OS:EnergyManagementSystem:Sensor,
  {104fb3ee-3af5-4e20-8696-d0a4e53223d5}, !- Handle
  mech_vent_range_fan_0_sch_s,            !- Name
  mech vent range fan 0 schedule,         !- Output Variable or Output Meter Index Key Name
  Schedule Value;                         !- Output Variable or Output Meter Name

OS:Schedule:Day,
  {753de404-6dbb-46cf-98a6-d5ad30613bb1}, !- Handle
  mech vent range fan 0 schedule allday1, !- Name
  {a8663697-55d2-41a5-a14c-ecafcd343e22}, !- Schedule Type Limits Name
  ,                                       !- Interpolate to Timestep
  18,                                     !- Hour 1
  0,                                      !- Minute 1
  0,                                      !- Value Until Time 1
  19,                                     !- Hour 2
  0,                                      !- Minute 2
  1,                                      !- Value Until Time 2
  24,                                     !- Hour 3
  0,                                      !- Minute 3
  0;                                      !- Value Until Time 3

OS:Schedule:Rule,
  {14694dba-0074-4797-93d9-03cd5d3b9795}, !- Handle
  mech vent range fan 0 schedule allday ruleset1, !- Name
  {4dfa9448-7564-4190-831a-af143351246a}, !- Schedule Ruleset Name
  0,                                      !- Rule Order
  {753de404-6dbb-46cf-98a6-d5ad30613bb1}, !- Day Schedule Name
  Yes,                                    !- Apply Sunday
  Yes,                                    !- Apply Monday
  Yes,                                    !- Apply Tuesday
  Yes,                                    !- Apply Wednesday
  Yes,                                    !- Apply Thursday
  Yes,                                    !- Apply Friday
  Yes,                                    !- Apply Saturday
  DateRange,                              !- Date Specification Type
  1,                                      !- Start Month
  1,                                      !- Start Day
  12,                                     !- End Month
  31;                                     !- End Day

OS:Schedule:Day,
  {5b542d4f-6b63-47a1-a3ae-d0bc08fade83}, !- Handle
  Schedule Day 18,                        !- Name
  {a8663697-55d2-41a5-a14c-ecafcd343e22}, !- Schedule Type Limits Name
  ,                                       !- Interpolate to Timestep
  24,                                     !- Hour 1
  0,                                      !- Minute 1
  0;                                      !- Value Until Time 1

OS:Schedule:Ruleset,
  {4dfa9448-7564-4190-831a-af143351246a}, !- Handle
  mech vent range fan 0 schedule,         !- Name
  {a8663697-55d2-41a5-a14c-ecafcd343e22}, !- Schedule Type Limits Name
  {5b542d4f-6b63-47a1-a3ae-d0bc08fade83}; !- Default Day Schedule Name

OS:EnergyManagementSystem:Actuator,
  {8b6bb8fc-b0c0-4104-9e79-d2339090af49}, !- Handle
  mech_vent_house_fan_latent_load_equip_act, !- Name
  {c9f9f6d8-9f50-40f3-973e-03484e610ba5}, !- Actuated Component Name
  OtherEquipment,                         !- Actuated Component Type
  Power Level;                            !- Actuated Component Control Type

OS:OtherEquipment,
  {c9f9f6d8-9f50-40f3-973e-03484e610ba5}, !- Handle
  mech vent house fan latent load equip,  !- Name
  {1ce6e233-3c30-4f27-b42e-bb9cd523a6da}, !- Other Equipment Definition Name
  {f4a31aad-d118-4447-a7b6-f21d019dbc1f}, !- Space or SpaceType Name
  {eff01e88-d5c2-4162-b6a9-ba19664b7d97}, !- Schedule Name
  ,                                       !- Multiplier
  None,                                   !- Fuel Type
  General;                                !- End-Use Subcategory

OS:OtherEquipment:Definition,
  {1ce6e233-3c30-4f27-b42e-bb9cd523a6da}, !- Handle
  mech vent house fan latent load equip,  !- Name
  EquipmentLevel,                         !- Design Level Calculation Method
  0,                                      !- Design Level {W}
  ,                                       !- Watts per Space Floor Area {W/m2}
  ,                                       !- Watts per Person {W/Person}
  1,                                      !- Fraction Latent
  0,                                      !- Fraction Radiant
  0;                                      !- Fraction Lost

OS:EnergyManagementSystem:Actuator,
  {0e26f63a-e2f5-4ef7-ad1c-b8c956da3970}, !- Handle
  mech_vent_house_fan_sensible_load_equip_act, !- Name
  {7e8c3847-32d3-4a96-a015-06c640d129da}, !- Actuated Component Name
  OtherEquipment,                         !- Actuated Component Type
  Power Level;                            !- Actuated Component Control Type

OS:OtherEquipment,
  {7e8c3847-32d3-4a96-a015-06c640d129da}, !- Handle
  mech vent house fan sensible load equip, !- Name
  {f4b9da60-ce89-4827-bfc7-b7a672343eb1}, !- Other Equipment Definition Name
  {f4a31aad-d118-4447-a7b6-f21d019dbc1f}, !- Space or SpaceType Name
  {eff01e88-d5c2-4162-b6a9-ba19664b7d97}, !- Schedule Name
  ,                                       !- Multiplier
  None,                                   !- Fuel Type
  General;                                !- End-Use Subcategory

OS:OtherEquipment:Definition,
  {f4b9da60-ce89-4827-bfc7-b7a672343eb1}, !- Handle
  mech vent house fan sensible load equip, !- Name
  EquipmentLevel,                         !- Design Level Calculation Method
  0,                                      !- Design Level {W}
  ,                                       !- Watts per Space Floor Area {W/m2}
  ,                                       !- Watts per Person {W/Person}
  0,                                      !- Fraction Latent
  0,                                      !- Fraction Radiant
  0;                                      !- Fraction Lost

OS:EnergyManagementSystem:Program,
  {06da608c-6a0f-41eb-8a94-3ff9ca5c5680}, !- Handle
  infil_program,                          !- Name
  Set p_m = 0.14,                         !- Program Line 1
  Set p_s = 0.22,                         !- Program Line 2
  Set s_m = 270,                          !- Program Line 3
  Set s_s = 370,                          !- Program Line 4
  Set z_m = 9.99744,                      !- Program Line 5
  Set z_s = 4.8768,                       !- Program Line 6
  Set f_t = (((s_m/z_m)^p_m)*((z_s/s_s)^p_s)), !- Program Line 7
  Set Tdiff = airflow_tin_s-airflow_tt_s, !- Program Line 8
  Set dT = @Abs Tdiff,                    !- Program Line 9
  Set c = 0.0615,                         !- Program Line 10
  Set Cs = 0.0889,                        !- Program Line 11
  Set Cw = 0.1625,                        !- Program Line 12
  Set n = 0.65,                           !- Program Line 13
  Set sft = (f_t*0.5),                    !- Program Line 14
  Set temp1 = ((c*Cw)*((sft*site_vw_s)^(2*n)))^2, !- Program Line 15
  Set Qinf = (((c*Cs*(dT^n))^2)+temp1)^0.5, !- Program Line 16
  Set Qinf = (@Max Qinf 0),               !- Program Line 17
  Set mech_vent_house_fan_sensible_load_equip_act = 0.0, !- Program Line 18
  Set mech_vent_house_fan_latent_load_equip_act = 0.0, !- Program Line 19
  Set OASupInPb = out_pb_s,               !- Program Line 20
  Set OASupInTemp = airflow_tt_s,         !- Program Line 21
  Set OASupInW = out_wt_s,                !- Program Line 22
  Set OASupRho = (@RhoAirFnPbTdbW OASupInPb OASupInTemp OASupInW), !- Program Line 23
  Set OASupCp = (@CpAirFnW OASupInW),     !- Program Line 24
  Set OASupInEnth = (@HFnTdbW OASupInTemp OASupInW), !- Program Line 25
  Set ZoneTemp = airflow_tin_s,           !- Program Line 26
  Set ZoneW = airflow_win_s,              !- Program Line 27
  Set ZoneCp = (@CpAirFnW ZoneW),         !- Program Line 28
  Set ZoneAirEnth = (@HFnTdbW ZoneTemp ZoneW), !- Program Line 29
  Set mech_vent_house_fan_cfis_act = 0.0, !- Program Line 30
  Set QWHV_cfis_sup = 0.0,                !- Program Line 31
  Set QWHV_cfis_suppl_sup = 0.0,          !- Program Line 32
  Set QWHV_cfis_suppl_exh = 0.0,          !- Program Line 33
  Set Qrange = 0,                         !- Program Line 34
  Set Qrange = Qrange + 0.04719 * mech_vent_range_fan_0_sch_s, !- Program Line 35
  Set Qbath = 0,                          !- Program Line 36
  Set Qbath = Qbath + 0.04719 * mech_vent_bath_fan_0_sch_s, !- Program Line 37
  Set Qdryer = 0,                         !- Program Line 38
  Set Qdryer = Qdryer + 0.00383 * clothes_dryer_exhaust_0_sch_s, !- Program Line 39
  Set QWHV_sup = 0.04186,                 !- Program Line 40
  Set QWHV_exh = 0.04186,                 !- Program Line 41
  Set Qexhaust = Qrange + Qbath + Qdryer + QWHV_exh + QWHV_cfis_suppl_exh, !- Program Line 42
  Set Qsupply = QWHV_sup + QWHV_cfis_sup + QWHV_cfis_suppl_sup, !- Program Line 43
  Set Qfan = (@Max Qexhaust Qsupply),     !- Program Line 44
  If Qfan > 0,                            !- Program Line 45
  Set Qavg = ((Qexhaust + Qsupply) / 2.0), !- Program Line 46
  If ((@Abs (Qexhaust - Qavg)) / Qavg) <= 0.1, !- Program Line 47
  Set phi = 1,                            !- Program Line 48
  Else,                                   !- Program Line 49
  Set phi = (Qinf / (Qinf + Qfan)),       !- Program Line 50
  EndIf,                                  !- Program Line 51
  Set Qinf_adj = phi * Qinf,              !- Program Line 52