
OS:Version,
  {6091239e-7397-4fcd-bb82-691fe2dd0e4e}, !- Handle
  3.5.1;                                  !- Version Identifier

OS:Facility,
  {3f4f6539-0f19-4807-94a9-ffef745be75a}; !- Handle

OS:Site,
  {7a9b84b7-8606-4758-893c-f8e4f702d295}, !- Handle
  Buffalo Niagara Intl Ap_NY_USA,         !- Name
  42.8206595156748,                       !- Latitude {deg}
  -78.8504437271844,                      !- Longitude {deg}
  -5,                                     !- Time Zone {hr}
  53.6448,                                !- Elevation {m}
  City;                                   !- Terrain

OS:SimulationControl,
  {ed0ff731-2133-4955-89a6-662b6a56767c}, !- Handle
  ,                                       !- Do Zone Sizing Calculation
  ,                                       !- Do System Sizing Calculation
  ,                                       !- Do Plant Sizing Calculation
  No,                                     !- Run Simulation for Sizing Periods
  Yes,                                    !- Run Simulation for Weather File Run Periods
  ,                                       !- Loads Convergence Tolerance Value {W}
  ,                                       !- Temperature Convergence Tolerance Value {deltaC}
  ,                                       !- Solar Distribution
  ,                                       !- Maximum Number of Warmup Days
  ,                                       !- Minimum Number of Warmup Days
  No,                                     !- Do HVAC Sizing Simulation for Sizing Periods
  1;                                      !- Maximum Number of HVAC Sizing Simulation Passes

OS:Sizing:Parameters,
  {5168898a-855f-4d4d-956a-8d71f41d91e5}, !- Handle
  1.25,                                   !- Heating Sizing Factor
  1.15;                                   !- Cooling Sizing Factor

OS:Timestep,
  {ccb1883f-f48c-487a-a315-e888287d8bad}, !- Handle
  1;                                      !- Number of Timesteps per Hour

OS:ShadowCalculation,
  {a0d8fb61-d8ed-4705-b1f9-056a1b0faa34}, !- Handle
  PolygonClipping,                        !- Shading Calculation Method
  ,                                       !- Shading Calculation Update Frequency Method
  20,                                     !- Shading Calculation Update Frequency
  15000,                                  !- Maximum Figures in Shadow Overlap Calculations
  ,                                       !- Polygon Clipping Algorithm
  512,                                    !- Pixel Counting Resolution
  ,                                       !- Sky Diffuse Modeling Algorithm
  No,                                     !- Output External Shading Calculation Results
  No,                                     !- Disable Self-Shading Within Shading Zone Groups
  No;                                     !- Disable Self-Shading From Shading Zone Groups to Other Zones

OS:HeatBalanceAlgorithm,
  {3f71f9e0-411d-45a5-89f9-312c202ca87b}, !- Handle
  ConductionTransferFunction,             !- Algorithm
  200;                                    !- Surface Temperature Upper Limit {C}

OS:RunPeriod,
  {a505ac1d-751b-4ea1-99f8-018baf55bd07}, !- Handle
  Run Period 1,                           !- Name
  1,                                      !- Begin Month
  1,                                      !- Begin Day of Month
  12,                                     !- End Month
  31,                                     !- End Day of Month
  ,                                       !- Use Weather File Holidays and Special Days
  ,                                       !- Use Weather File Daylight Saving Period
  ,                                       !- Apply Weekend Holiday Rule
  ,                                       !- Use Weather File Rain Indicators
  ,                                       !- Use Weather File Snow Indicators
  ;                                       !- Number of Times Runperiod to be Repeated

OS:LifeCycleCost:Parameters,
  {4abb13c5-d5ab-4cd7-b2df-1216f90d3f91}, !- Handle
  ,                                       !- Analysis Type
  ,                                       !- Discounting Convention
  ,                                       !- Inflation Approach
  ,                                       !- Real Discount Rate
  ,                                       !- Nominal Discount Rate
  ,                                       !- Inflation
  ,                                       !- Base Date Month
  ,                                       !- Base Date Year
  ,                                       !- Service Date Month
  ,                                       !- Service Date Year
  ;                                       !- Length of Study Period in Years

OS:YearDescription,
  {3a885986-fd78-4301-b848-4f69dda73cff}, !- Handle
  2017,                                   !- Calendar Year
  ,                                       !- Day of Week for Start Day
  ;                                       !- Is Leap Year

OS:WeatherFile,
  {b8ed9094-0c65-4147-a123-b52c6c049ce8}, !- Handle
  Buffalo Niagara Intl Ap,                !- City
  NY,                                     !- State Province Region
  USA,                                    !- Country
  TMY3,                                   !- Data Source
  725280,                                 !- WMO Number
  42.93,                                  !- Latitude {deg}
  -78.73,                                 !- Longitude {deg}
  -5,                                     !- Time Zone {hr}
  215,                                    !- Elevation {m}
  /Users/nlong/working/dissertation-analysis/dc/analysis/esbe/activity_3/coincident/weather/USA_NY_Buffalo-Greater.Buffalo.Intl.AP.725280_TMY3.epw, !- Url
  ;                                       !- Checksum

OS:Site:WaterMainsTemperature,
  {bbecd30b-be05-4dd8-bc06-2893c96532ad}, !- Handle
  Correlation,                            !- Calculation Method
  ,                                       !- Temperature Schedule Name
  8.96666666666667,                       !- Annual Average Outdoor Air Temperature {C}
  26.2;                                   !- Maximum Difference In Monthly Average Outdoor Air Temperatures {deltaC}

OS:SizingPeriod:DesignDay,
  {dad2c65f-4ae2-4168-9d43-ec0f2bb94a70}, !- Handle
  Buffalo Niagara Intl Ap Ann Clg .4% Condns DB=>MWB 1, !- Name
  30.3,                                   !- Maximum Dry-Bulb Temperature {C}
  9.3,                                    !- Daily Dry-Bulb Temperature Range {deltaC}
  98769,                                  !- Barometric Pressure {Pa}
  5.7,                                    !- Wind Speed {m/s}
  240,                                    !- Wind Direction {deg}
  ,                                       !- Sky Clearness
  No,                                     !- Rain Indicator
  No,                                     !- Snow Indicator
  21,                                     !- Day of Month
  7,                                      !- Month
  SummerDesignDay,                        !- Day Type
  No,                                     !- Daylight Saving Time Indicator
  Wetbulb,                                !- Humidity Condition Type
  ,                                       !- Humidity Condition Day Schedule Name
  21.8,                                   !- Wetbulb or DewPoint at Maximum Dry-Bulb {C}
  ,                                       !- Humidity Ratio at Maximum Dry-Bulb {kgWater/kgDryAir}
  ,                                       !- Enthalpy at Maximum Dry-Bulb {J/kg}
  DefaultMultipliers,                     !- Dry-Bulb Temperature Range Modifier Type
  ,                                       !- Dry-Bulb Temperature Range Modifier Day Schedule Name
  ASHRAETau,                              !- Solar Model Indicator
  ,                                       !- Beam Solar Day Schedule Name
  ,                                       !- Diffuse Solar Day Schedule Name
  0.462,                                  !- ASHRAE Clear Sky Optical Depth for Beam Irradiance {dimensionless}
  2.001;                                  !- ASHRAE Clear Sky Optical Depth for Diffuse Irradiance {dimensionless}

OS:SizingPeriod:DesignDay,
  {dfbc55f8-342a-41d3-8943-e3272b5e50ec}, !- Handle
  Buffalo Niagara Intl Ap Ann Clg .4% Condns WB=>MDB 1, !- Name
  27.8,                                   !- Maximum Dry-Bulb Temperature {C}
  9.3,                                    !- Daily Dry-Bulb Temperature Range {deltaC}
  98769,                                  !- Barometric Pressure {Pa}
  5.7,                                    !- Wind Speed {m/s}
  240,                                    !- Wind Direction {deg}
  ,                                       !- Sky Clearness
  No,                                     !- Rain Indicator
  No,                                     !- Snow Indicator
  21,                                     !- Day of Month
  7,                                      !- Month
  SummerDesignDay,                        !- Day Type
  No,                                     !- Daylight Saving Time Indicator
  Wetbulb,                                !- Humidity Condition Type
  ,                                       !- Humidity Condition Day Schedule Name
  23.8,                                   !- Wetbulb or DewPoint at Maximum Dry-Bulb {C}
  ,                                       !- Humidity Ratio at Maximum Dry-Bulb {kgWater/kgDryAir}
  ,                                       !- Enthalpy at Maximum Dry-Bulb {J/kg}
  DefaultMultipliers,                     !- Dry-Bulb Temperature Range Modifier Type
  ,                                       !- Dry-Bulb Temperature Range Modifier Day Schedule Name
  ASHRAETau,                              !- Solar Model Indicator
  ,                                       !- Beam Solar Day Schedule Name
  ,                                       !- Diffuse Solar Day Schedule Name
  0.462,                                  !- ASHRAE Clear Sky Optical Depth for Beam Irradiance {dimensionless}
  2.001;                                  !- ASHRAE Clear Sky Optical Depth for Diffuse Irradiance {dimensionless}

OS:SizingPeriod:DesignDay,
  {25541a78-8c25-4651-acd5-313beab996ea}, !- Handle
  Buffalo Niagara Intl Ap Ann Htg 99.6% Condns DB 1, !- Name
  -16.3,                                  !- Maximum Dry-Bulb Temperature {C}
  0,                                      !- Daily Dry-Bulb Temperature Range {deltaC}
  98769,                                  !- Barometric Pressure {Pa}
  5.1,                                    !- Wind Speed {m/s}
  270,                                    !- Wind Direction {deg}
  0,                                      !- Sky Clearness
  No,                                     !- Rain Indicator
  No,                                     !- Snow Indicator
  21,                                     !- Day of Month
  1,                                      !- Month
  WinterDesignDay,                        !- Day Type
  No,                                     !- Daylight Saving Time Indicator
  Wetbulb,                                !- Humidity Condition Type
  ,                                       !- Humidity Condition Day Schedule Name
  -16.3,                                  !- Wetbulb or DewPoint at Maximum Dry-Bulb {C}
  ,                                       !- Humidity Ratio at Maximum Dry-Bulb {kgWater/kgDryAir}
  ,                                       !- Enthalpy at Maximum Dry-Bulb {J/kg}
  DefaultMultipliers,                     !- Dry-Bulb Temperature Range Modifier Type
  ,                                       !- Dry-Bulb Temperature Range Modifier Day Schedule Name
  ASHRAEClearSky;                         !- Solar Model Indicator

OS:ClimateZones,
  {053f16e3-0311-4c70-9ede-f546d455e56e}, !- Handle
  ASHRAE,                                 !- Climate Zone Institution Name 1
  ANSI/ASHRAE Standard 169,               !- Climate Zone Document Name 1
  2006,                                   !- Climate Zone Document Year 1
  6A;                                     !- Climate Zone Value 1

OS:Rendering:Color,
  {709a1701-e4a5-4c65-a794-3d5b1af3a7eb}, !- Handle
  Office WholeBuilding - Sm Office,       !- Name
  120,                                    !- Rendering Red Value
  230,                                    !- Rendering Green Value
  199;                                    !- Rendering Blue Value

OS:RunPeriodControl:DaylightSavingTime,
  {07739421-6107-45df-8536-a358176fc96d}, !- Handle
  2nd Sunday in March,                    !- Start Date
  1st Sunday in November;                 !- End Date

OS:People:Definition,
  {90349f71-69a9-4db8-8a57-4b66a2779790}, !- Handle
  Office WholeBuilding - Sm Office People Definition, !- Name
  People/Area,                            !- Number of People Calculation Method
  ,                                       !- Number of People {people}
  0.0602778983335744,                     !- People per Space Floor Area {person/m2}
  ,                                       !- Space Floor Area per Person {m2/person}
  0.3,                                    !- Fraction Radiant
  ,                                       !- Sensible Heat Fraction
  ,                                       !- Carbon Dioxide Generation Rate {m3/s-W}
  Yes,                                    !- Enable ASHRAE 55 Comfort Warnings
  ZoneAveraged,                           !- Mean Radiant Temperature Calculation Type
  Fanger;                                 !- Thermal Comfort Model Type 1

OS:Schedule:Ruleset,
  {49cc7c30-1279-4f83-8cd7-0a692e763b8f}, !- Handle
  Clothing Schedule,                      !- Name
  {e00c112e-e63b-42d9-940e-e1d884b83ab6}, !- Schedule Type Limits Name
  {2097b4a9-ac2c-469d-a7a4-d5a34a274352}; !- Default Day Schedule Name

OS:Schedule:Day,
  {2097b4a9-ac2c-469d-a7a4-d5a34a274352}, !- Handle
  Clothing Schedule Default Winter Clothes, !- Name
  {e00c112e-e63b-42d9-940e-e1d884b83ab6}, !- Schedule Type Limits Name
  ,                                       !- Interpolate to Timestep
  24,                                     !- Hour 1
  0,                                      !- Minute 1
  1;                                      !- Value Until Time 1

OS:Schedule:Rule,
  {b6cf9c5b-0244-4766-9438-03fa513b45ee}, !- Handle
  Schedule Rule 1,                        !- Name
  {49cc7c30-1279-4f83-8cd7-0a692e763b8f}, !- Schedule Ruleset Name
  0,                                      !- Rule Order
  {44681115-9641-477b-a98a-66e3fe0ec820}, !- Day Schedule Name
  ,                                       !- Apply Sunday
  ,                                       !- Apply Monday
  ,                                       !- Apply Tuesday
  ,                                       !- Apply Wednesday
  ,                                       !- Apply Thursday
  ,                                       !- Apply Friday
  ,                                       !- Apply Saturday
  DateRange,                              !- Date Specification Type
  5,                                      !- Start Month
  1,                                      !- Start Day
  9,                                      !- End Month
  30;                                     !- End Day

OS:Schedule:Day,
  {44681115-9641-477b-a98a-66e3fe0ec820}, !- Handle
  Clothing Schedule Summer Clothes,       !- Name
  {e00c112e-e63b-42d9-940e-e1d884b83ab6}, !- Schedule Type Limits Name
  ,                                       !- Interpolate to Timestep
  24,                                     !- Hour 1
  0,                                      !- Minute 1
  0.5;                                    !- Value Until Time 1

OS:ScheduleTypeLimits,
  {e00c112e-e63b-42d9-940e-e1d884b83ab6}, !- Handle
  ClothingInsulation,                     !- Name
  0,                                      !- Lower Limit Value
  ,                                       !- Upper Limit Value
  Continuous,                             !- Numeric Type
  ClothingInsulation;                     !- Unit Type

OS:Schedule:Ruleset,
  {518cfec8-909e-4bdf-8688-de48a4c23b29}, !- Handle
  Air Velocity Schedule,                  !- Name
  {254d53ca-4e00-4c4a-9ad9-1a56479e0479}, !- Schedule Type Limits Name
  {ef513c01-aa57-43f5-a91c-d92f164fc09f}; !- Default Day Schedule Name

OS:Schedule:Day,
  {ef513c01-aa57-43f5-a91c-d92f164fc09f}, !- Handle
  Air Velocity Schedule Default,          !- Name
  {254d53ca-4e00-4c4a-9ad9-1a56479e0479}, !- Schedule Type Limits Name
  ,                                       !- Interpolate to Timestep
  24,                                     !- Hour 1
  0,                                      !- Minute 1
  0.2;                                    !- Value Until Time 1

OS:ScheduleTypeLimits,
  {254d53ca-4e00-4c4a-9ad9-1a56479e0479}, !- Handle
  Velocity,                               !- Name
  0,                                      !- Lower Limit Value
  ,                                       !- Upper Limit Value
  Continuous,                             !- Numeric Type
  Velocity;                               !- Unit Type

OS:Schedule:Ruleset,
  {e37d8d45-70a3-4adf-8b5f-311762b25db6}, !- Handle
  Work Efficiency Schedule,               !- Name
  {3063a2ab-99b7-4a89-bfde-eb06bbf669ca}, !- Schedule Type Limits Name
  {00966dd8-5114-4fda-aea1-c7310e53ffba}; !- Default Day Schedule Name

OS:Schedule:Day,
  {00966dd8-5114-4fda-aea1-c7310e53ffba}, !- Handle
  Work Efficiency Schedule Default,       !- Name
  {3063a2ab-99b7-4a89-bfde-eb06bbf669ca}, !- Schedule Type Limits Name
  ,                                       !- Interpolate to Timestep
  24,                                     !- Hour 1
  0,                                      !- Minute 1
  0;                                      !- Value Until Time 1

OS:ScheduleTypeLimits,
  {3063a2ab-99b7-4a89-bfde-eb06bbf669ca}, !- Handle
  Fractional,                             !- Name
  0,                                      !- Lower Limit Value
  1,                                      !- Upper Limit Value
  Continuous;                             !- Numeric Type

OS:Lights:Definition,
  {adb1674f-cd47-4af9-9233-574de2af6ae7}, !- Handle
  Office WholeBuilding - Sm Office Lights Definition, !- Name
  Watts/Area,                             !- Design Level Calculation Method
  ,                                       !- Lighting Level {W}
  8.82640654170197,                       !- Watts per Space Floor Area {W/m2}
  ,                                       !- Watts per Person {W/person}
  0.7,                                    !- Fraction Radiant
  0.2,                                    !- Fraction Visible
  0;                                      !- Return Air Fraction

OS:AdditionalProperties,
  {5aac5ee9-4843-42c5-acf8-5723b886f756}, !- Handle
  {adb1674f-cd47-4af9-9233-574de2af6ae7}, !- Object Name
  lpd_fraction_linear_fluorescent,        !- Feature Name 1
  Double,                                 !- Feature Data Type 1
  1;                                      !- Feature Value 1

OS:ElectricEquipment:Definition,
  {984ae575-0ab2-4539-b77a-33a69c1763ac}, !- Handle
  Office WholeBuilding - Sm Office Elec Equip Definition, !- Name
  Watts/Area,                             !- Design Level Calculation Method
  ,                                       !- Design Level {W}
  6.78126356252712,                       !- Watts per Space Floor Area {W/m2}
  ,                                       !- Watts per Person {W/person}
  0,                                      !- Fraction Latent
  0,                                      !- Fraction Radiant
  0;                                      !- Fraction Lost

OS:DesignSpecification:OutdoorAir,
  {367a335a-5c57-425e-9d12-6b85443dd7d2}, !- Handle
  Office WholeBuilding - Sm Office Ventilation, !- Name
  Sum,                                    !- Outdoor Air Method
  ,                                       !- Outdoor Air Flow per Person {m3/s-person}
  0.0004318,                              !- Outdoor Air Flow per Floor Area {m3/s-m2}
  ,                                       !- Outdoor Air Flow Rate {m3/s}
  ,                                       !- Outdoor Air Flow Air Changes per Hour {1/hr}
  ;                                       !- Outdoor Air Flow Rate Fraction Schedule Name

OS:DefaultScheduleSet,
  {5bffb28c-c65d-49d6-a786-e1d8126ec7de}, !- Handle
  Office WholeBuilding - Sm Office Schedule Set, !- Name
  ,                                       !- Hours of Operation Schedule Name
  {91bdb5c2-3c0c-4652-ac5e-a5b470444cb2}, !- Number of People Schedule Name
  {20ef2cf2-65fe-4d0a-8125-c2a84507843b}, !- People Activity Level Schedule Name
  {7bee2c8f-6eff-41c1-867d-3db85cf27076}, !- Lighting Schedule Name
  {8505ae57-d7db-45f6-8b68-0050a912fe7d}, !- Electric Equipment Schedule Name
  ,                                       !- Gas Equipment Schedule Name
  ,                                       !- Hot Water Equipment Schedule Name
  {9f592700-6684-4f53-b4c2-4469ebdcd67e}, !- Infiltration Schedule Name
  ,                                       !- Steam Equipment Schedule Name
  ;                                       !- Other Equipment Schedule Name

OS:Schedule:Ruleset,
  {91bdb5c2-3c0c-4652-ac5e-a5b470444cb2}, !- Handle
  OfficeSmall BLDG_OCC_SCH,               !- Name
  {3063a2ab-99b7-4a89-bfde-eb06bbf669ca}, !- Schedule Type Limits Name
  {8802d8ad-48e5-4bbb-a8ae-317b54c91570}, !- Default Day Schedule Name
  {241dee98-6f19-4cfe-891b-525a84d4f864}, !- Summer Design Day Schedule Name
  {012e4871-8a93-4aae-9db8-2205ee1f04b8}; !- Winter Design Day Schedule Name

OS:Schedule:Day,
  {8802d8ad-48e5-4bbb-a8ae-317b54c91570}, !- Handle
  OfficeSmall BLDG_OCC_SCH Default,       !- Name
  {3063a2ab-99b7-4a89-bfde-eb06bbf669ca}, !- Schedule Type Limits Name
  Yes,                                    !- Interpolate to Timestep
  9,                                      !- Hour 1
  0,                                      !- Minute 1
  0,                                      !- Value Until Time 1
  24,                                     !- Hour 2
  0,                                      !- Minute 2
  0;                                      !- Value Until Time 2

OS:Schedule:Day,
  {012e4871-8a93-4aae-9db8-2205ee1f04b8}, !- Handle
  OfficeSmall BLDG_OCC_SCH Winter Design Day, !- Name
  {3063a2ab-99b7-4a89-bfde-eb06bbf669ca}, !- Schedule Type Limits Name
  ,                                       !- Interpolate to Timestep
  24,                                     !- Hour 1
  0,                                      !- Minute 1
  0;                                      !- Value Until Time 1

OS:Schedule:Day,
  {241dee98-6f19-4cfe-891b-525a84d4f864}, !- Handle
  OfficeSmall BLDG_OCC_SCH Summer Design Day, !- Name
  {3063a2ab-99b7-4a89-bfde-eb06bbf669ca}, !- Schedule Type Limits Name
  ,                                       !- Interpolate to Timestep
  24,                                     !- Hour 1
  0,                                      !- Minute 1
  1;                                      !- Value Until Time 1

OS:Schedule:Rule,
  {7dd4ae55-4e07-481b-8654-5206681f2410}, !- Handle
  Schedule Rule 2,                        !- Name
  {91bdb5c2-3c0c-4652-ac5e-a5b470444cb2}, !- Schedule Ruleset Name
  0,                                      !- Rule Order
  {7fe800f4-b9a6-4521-ba04-ea8be0508678}, !- Day Schedule Name
  ,                                       !- Apply Sunday
  Yes,                                    !- Apply Monday
  Yes,                                    !- Apply Tuesday
  Yes,                                    !- Apply Wednesday
  Yes,                                    !- Apply Thursday
  Yes,                                    !- Apply Friday
  ,                                       !- Apply Saturday
  DateRange,                              !- Date Specification Type
  1,                                      !- Start Month
  1,                                      !- Start Day
  12,                                     !- End Month
  31;                                     !- End Day

OS:Schedule:Day,
  {7fe800f4-b9a6-4521-ba04-ea8be0508678}, !- Handle
  OfficeSmall BLDG_OCC_SCH Wkdy Day,      !- Name
  {3063a2ab-99b7-4a89-bfde-eb06bbf669ca}, !- Schedule Type Limits Name
  Yes,                                    !- Interpolate to Timestep
  6,                                      !- Hour 1
  30,                                     !- Minute 1
  0,                                      !- Value Until Time 1
  7,                                      !- Hour 2
  30,                                     !- Minute 2
  0.11,                                   !- Value Until Time 2
  8,                                      !- Hour 3
  30,                                     !- Minute 3
  0.21,                                   !- Value Until Time 3
  9,                                      !- Hour 4
  30,                                     !- Minute 4
  1,                                      !- Value Until Time 4
  11,                                     !- Hour 5
  30,                                     !- Minute 5
  1,                                      !- Value Until Time 5
  12,                                     !- Hour 6
  30,                                     !- Minute 6
  0.53,                                   !- Value Until Time 6
  13,                                     !- Hour 7
  30,                                     !- Minute 7
  1,                                      !- Value Until Time 7
  15,                                     !- Hour 8
  30,                                     !- Minute 8
  1,                                      !- Value Until Time 8
  16,                                     !- Hour 9
  30,                                     !- Minute 9
  0.32,                                   !- Value Until Time 9
  17,                                     !- Hour 10
  30,                                     !- Minute 10
  0.11,                                   !- Value Until Time 10
  20,                                     !- Hour 11
  30,                                     !- Minute 11
  0.11,                                   !- Value Until Time 11
  21,                                     !- Hour 12
  30,                                     !- Minute 12
  0.05,                                   !- Value Until Time 12
  22,                                     !- Hour 13
  30,                                     !- Minute 13
  0,                                      !- Value Until Time 13
  24,                                     !- Hour 14
  0,                                      !- Minute 14
  0;                                      !- Value Until Time 14

OS:Schedule:Ruleset,
  {20ef2cf2-65fe-4d0a-8125-c2a84507843b}, !- Handle
  OfficeSmall ACTIVITY_SCH,               !- Name
  {42b53818-2e3e-444c-97ce-18710d27e65c}, !- Schedule Type Limits Name
  {8c45d373-2f05-4344-a802-c7b8415c4917}, !- Default Day Schedule Name
  {0c18c2a2-56d6-458b-b36b-e7415b56d80d}, !- Summer Design Day Schedule Name
  {8b057c9f-bfcf-4b0d-b3b7-227fc48ab479}; !- Winter Design Day Schedule Name

OS:Schedule:Day,
  {8c45d373-2f05-4344-a802-c7b8415c4917}, !- Handle
  OfficeSmall ACTIVITY_SCH Default,       !- Name
  {42b53818-2e3e-444c-97ce-18710d27e65c}, !- Schedule Type Limits Name
  Yes,                                    !- Interpolate to Timestep
  24,                                     !- Hour 1
  0,                                      !- Minute 1
  120;                                    !- Value Until Time 1

OS:Schedule:Day,
  {8b057c9f-bfcf-4b0d-b3b7-227fc48ab479}, !- Handle
  OfficeSmall ACTIVITY_SCH Winter Design Day, !- Name
  {42b53818-2e3e-444c-97ce-18710d27e65c}, !- Schedule Type Limits Name
  ,                                       !- Interpolate to Timestep
  24,                                     !- Hour 1
  0,                                      !- Minute 1
  120;                                    !- Value Until Time 1

OS:Schedule:Day,
  {0c18c2a2-56d6-458b-b36b-e7415b56d80d}, !- Handle
  OfficeSmall ACTIVITY_SCH Summer Design Day, !- Name
  {42b53818-2e3e-444c-97ce-18710d27e65c}, !- Schedule Type Limits Name
  ,                                       !- Interpolate to Timestep
  24,                                     !- Hour 1
  0,                                      !- Minute 1
  120;                                    !- Value Until Time 1

OS:ScheduleTypeLimits,
  {42b53818-2e3e-444c-97ce-18710d27e65c}, !- Handle
  ActivityLevel,                          !- Name
  0,                                      !- Lower Limit Value
  ,                                       !- Upper Limit Value
  Continuous,                             !- Numeric Type
  ActivityLevel;                          !- Unit Type

OS:Schedule:Ruleset,
  {7bee2c8f-6eff-41c1-867d-3db85cf27076}, !- Handle
  OfficeSmall BLDG_LIGHT_SCH_2013,        !- Name
  {3063a2ab-99b7-4a89-bfde-eb06bbf669ca}, !- Schedule Type Limits Name
  {17946e02-3392-4d7a-9e11-0519fccb7d1e}, !- Default Day Schedule Name
  {bc3994d8-bc93-4787-9c8a-9468060be1a6}, !- Summer Design Day Schedule Name
  {cac3a77b-ccaa-4c05-b285-6ba2e3c2625a}; !- Winter Design Day Schedule Name

OS:Schedule:Day,
  {17946e02-3392-4d7a-9e11-0519fccb7d1e}, !- Handle
  OfficeSmall BLDG_LIGHT_SCH_2013 Default, !- Name
  {3063a2ab-99b7-4a89-bfde-eb06bbf669ca}, !- Schedule Type Limits Name
  Yes,                                    !- Interpolate to Timestep
  5,                                      !- Hour 1
  30,                                     !- Minute 1
  0.18,                                   !- Value Until Time 1
  6,                                      !- Hour 2
  30,                                     !- Minute 2
  0.23,                                   !- Value Until Time 2
  7,                                      !- Hour 3
  30,                                     !- Minute 3