
OS:Version,
  {c206ee19-88b9-4d07-92df-7c9ddf19e3cd}, !- Handle
  3.5.1;                                  !- Version Identifier

OS:Facility,
  {e341702b-0661-4560-b5e3-fa4dc01dc5b6}; !- Handle

OS:Site,
  {7953933c-5c65-4f50-95b5-a00052bb1ff0}, !- Handle
  Buffalo Niagara Intl Ap_NY_USA,         !- Name
  42.820289592635,                        !- Latitude {deg}
  -78.8509111522726,                      !- Longitude {deg}
  -5,                                     !- Time Zone {hr}
  53.6448,                                !- Elevation {m}
  City;                                   !- Terrain

OS:SimulationControl,
  {a28e4550-f52f-43be-b6cc-f2a509b42550}, !- Handle
  ,                                       !- Do Zone Sizing Calculation
  ,                                       !- Do System Sizing Calculation
  ,                                       !- Do Plant Sizing Calculation
  No,                                     !- Run Simulation for Sizing Periods
  Yes,                                    !- Run Simulation for Weather File Run Periods
  ,                                       !- Loads Convergence Tolerance Value {W}
  ,                                       !- Temperature Convergence Tolerance Value {deltaC}
  ,                                       !- Solar Distribution
  ,                                       !- Maximum Number of Warmup Days
  ,                                       !- Minimum Number of Warmup Days
  No,                                     !- Do HVAC Sizing Simulation for Sizing Periods
  1;                                      !- Maximum Number of HVAC Sizing Simulation Passes

OS:Sizing:Parameters,
  {0813254a-08a5-46f4-9b47-05b1fb140ba1}, !- Handle
  1.25,                                   !- Heating Sizing Factor
  1.15;                                   !- Cooling Sizing Factor

OS:Timestep,
  {0bfe1b7a-f037-4f1f-9b02-04424a768491}, !- Handle
  1;                                      !- Number of Timesteps per Hour

OS:ShadowCalculation,
  {4b85767c-23b3-4af7-99e9-bc47a9caa278}, !- Handle
  PolygonClipping,                        !- Shading Calculation Method
  ,                                       !- Shading Calculation Update Frequency Method
  20,                                     !- Shading Calculation Update Frequency
  15000,                                  !- Maximum Figures in Shadow Overlap Calculations
  ,                                       !- Polygon Clipping Algorithm
  512,                                    !- Pixel Counting Resolution
  ,                                       !- Sky Diffuse Modeling Algorithm
  No,                                     !- Output External Shading Calculation Results
  No,                                     !- Disable Self-Shading Within Shading Zone Groups
  No;                                     !- Disable Self-Shading From Shading Zone Groups to Other Zones

OS:HeatBalanceAlgorithm,
  {a936af60-aba3-4e33-b036-694123a3fbc1}, !- Handle
  ConductionTransferFunction,             !- Algorithm
  200;                                    !- Surface Temperature Upper Limit {C}

OS:RunPeriod,
  {fce6f877-d3d1-40bf-ae81-c80f97e8f715}, !- Handle
  Run Period 1,                           !- Name
  1,                                      !- Begin Month
  1,                                      !- Begin Day of Month
  12,                                     !- End Month
  31,                                     !- End Day of Month
  ,                                       !- Use Weather File Holidays and Special Days
  ,                                       !- Use Weather File Daylight Saving Period
  ,                                       !- Apply Weekend Holiday Rule
  ,                                       !- Use Weather File Rain Indicators
  ,                                       !- Use Weather File Snow Indicators
  ;                                       !- Number of Times Runperiod to be Repeated

OS:LifeCycleCost:Parameters,
  {5b31890f-6e31-47e2-91fd-4966a1673dff}, !- Handle
  ,                                       !- Analysis Type
  ,                                       !- Discounting Convention
  ,                                       !- Inflation Approach
  ,                                       !- Real Discount Rate
  ,                                       !- Nominal Discount Rate
  ,                                       !- Inflation
  ,                                       !- Base Date Month
  ,                                       !- Base Date Year
  ,                                       !- Service Date Month
  ,                                       !- Service Date Year
  ;                                       !- Length of Study Period in Years

OS:YearDescription,
  {d4890fa2-5f6d-4403-9c5f-03cd73466d66}, !- Handle
  2017,                                   !- Calendar Year
  ,                                       !- Day of Week for Start Day
  ;                                       !- Is Leap Year

OS:WeatherFile,
  {761b90a7-41ec-42f1-9587-247c4737cc37}, !- Handle
  Buffalo Niagara Intl Ap,                !- City
  NY,                                     !- State Province Region
  USA,                                    !- Country
  TMY3,                                   !- Data Source
  725280,                                 !- WMO Number
  42.93,                                  !- Latitude {deg}
  -78.73,                                 !- Longitude {deg}
  -5,                                     !- Time Zone {hr}
  215,                                    !- Elevation {m}
  /Users/nlong/working/dissertation-analysis/dc/analysis/esbe/activity_3/coincident/weather/USA_NY_Buffalo-Greater.Buffalo.Intl.AP.725280_TMY3.epw, !- Url
  ;                                       !- Checksum

OS:Site:WaterMainsTemperature,
  {7c233d84-bc92-4cf5-a313-d347fc391020}, !- Handle
  Correlation,                            !- Calculation Method
  ,                                       !- Temperature Schedule Name
  8.96666666666667,                       !- Annual Average Outdoor Air Temperature {C}
  26.2;                                   !- Maximum Difference In Monthly Average Outdoor Air Temperatures {deltaC}

OS:SizingPeriod:DesignDay,
  {6178585a-4cfa-4ab5-b10b-0efe029b8743}, !- Handle
  Buffalo Niagara Intl Ap Ann Clg .4% Condns DB=>MWB 1, !- Name
  30.3,                                   !- Maximum Dry-Bulb Temperature {C}
  9.3,                                    !- Daily Dry-Bulb Temperature Range {deltaC}
  98769,                                  !- Barometric Pressure {Pa}
  5.7,                                    !- Wind Speed {m/s}
  240,                                    !- Wind Direction {deg}
  ,                                       !- Sky Clearness
  No,                                     !- Rain Indicator
  No,                                     !- Snow Indicator
  21,                                     !- Day of Month
  7,                                      !- Month
  SummerDesignDay,                        !- Day Type
  No,                                     !- Daylight Saving Time Indicator
  Wetbulb,                                !- Humidity Condition Type
  ,                                       !- Humidity Condition Day Schedule Name
  21.8,                                   !- Wetbulb or DewPoint at Maximum Dry-Bulb {C}
  ,                                       !- Humidity Ratio at Maximum Dry-Bulb {kgWater/kgDryAir}
  ,                                       !- Enthalpy at Maximum Dry-Bulb {J/kg}
  DefaultMultipliers,                     !- Dry-Bulb Temperature Range Modifier Type
  ,                                       !- Dry-Bulb Temperature Range Modifier Day Schedule Name
  ASHRAETau,                              !- Solar Model Indicator
  ,                                       !- Beam Solar Day Schedule Name
  ,                                       !- Diffuse Solar Day Schedule Name
  0.462,                                  !- ASHRAE Clear Sky Optical Depth for Beam Irradiance {dimensionless}
  2.001;                                  !- ASHRAE Clear Sky Optical Depth for Diffuse Irradiance {dimensionless}

OS:SizingPeriod:DesignDay,
  {813df5d8-0264-42e7-bc93-cb0d22508f9e}, !- Handle
  Buffalo Niagara Intl Ap Ann Clg .4% Condns WB=>MDB 1, !- Name
  27.8,                                   !- Maximum Dry-Bulb Temperature {C}
  9.3,                                    !- Daily Dry-Bulb Temperature Range {deltaC}
  98769,                                  !- Barometric Pressure {Pa}
  5.7,                                    !- Wind Speed {m/s}
  240,                                    !- Wind Direction {deg}
  ,                                       !- Sky Clearness
  No,                                     !- Rain Indicator
  No,                                     !- Snow Indicator
  21,                                     !- Day of Month
  7,                                      !- Month
  SummerDesignDay,                        !- Day Type
  No,                                     !- Daylight Saving Time Indicator
  Wetbulb,                                !- Humidity Condition Type
  ,                                       !- Humidity Condition Day Schedule Name
  23.8,                                   !- Wetbulb or DewPoint at Maximum Dry-Bulb {C}
  ,                                       !- Humidity Ratio at Maximum Dry-Bulb {kgWater/kgDryAir}
  ,                                       !- Enthalpy at Maximum Dry-Bulb {J/kg}
  DefaultMultipliers,                     !- Dry-Bulb Temperature Range Modifier Type
  ,                                       !- Dry-Bulb Temperature Range Modifier Day Schedule Name
  ASHRAETau,                              !- Solar Model Indicator
  ,                                       !- Beam Solar Day Schedule Name
  ,                                       !- Diffuse Solar Day Schedule Name
  0.462,                                  !- ASHRAE Clear Sky Optical Depth for Beam Irradiance {dimensionless}
  2.001;                                  !- ASHRAE Clear Sky Optical Depth for Diffuse Irradiance {dimensionless}

OS:SizingPeriod:DesignDay,
  {b2e53572-83f4-4062-a38b-4ad46e42f3dc}, !- Handle
  Buffalo Niagara Intl Ap Ann Htg 99.6% Condns DB 1, !- Name
  -16.3,                                  !- Maximum Dry-Bulb Temperature {C}
  0,                                      !- Daily Dry-Bulb Temperature Range {deltaC}
  98769,                                  !- Barometric Pressure {Pa}
  5.1,                                    !- Wind Speed {m/s}
  270,                                    !- Wind Direction {deg}
  0,                                      !- Sky Clearness
  No,                                     !- Rain Indicator
  No,                                     !- Snow Indicator
  21,                                     !- Day of Month
  1,                                      !- Month
  WinterDesignDay,                        !- Day Type
  No,                                     !- Daylight Saving Time Indicator
  Wetbulb,                                !- Humidity Condition Type
  ,                                       !- Humidity Condition Day Schedule Name
  -16.3,                                  !- Wetbulb or DewPoint at Maximum Dry-Bulb {C}
  ,                                       !- Humidity Ratio at Maximum Dry-Bulb {kgWater/kgDryAir}
  ,                                       !- Enthalpy at Maximum Dry-Bulb {J/kg}
  DefaultMultipliers,                     !- Dry-Bulb Temperature Range Modifier Type
  ,                                       !- Dry-Bulb Temperature Range Modifier Day Schedule Name
  ASHRAEClearSky;                         !- Solar Model Indicator

OS:ClimateZones,
  {3010135d-eb15-4ac0-a490-26882a25389e}, !- Handle
  ASHRAE,                                 !- Climate Zone Institution Name 1
  ANSI/ASHRAE Standard 169,               !- Climate Zone Document Name 1
  2006,                                   !- Climate Zone Document Year 1
  6A;                                     !- Climate Zone Value 1

OS:Rendering:Color,
  {191dfdcf-02e2-41cb-aef1-abe855985e57}, !- Handle
  Office WholeBuilding - Sm Office,       !- Name
  120,                                    !- Rendering Red Value
  230,                                    !- Rendering Green Value
  199;                                    !- Rendering Blue Value

OS:RunPeriodControl:DaylightSavingTime,
  {b1edf00c-b0e0-41e6-9513-691f488d0aba}, !- Handle
  2nd Sunday in March,                    !- Start Date
  1st Sunday in November;                 !- End Date

OS:People:Definition,
  {57ad59df-5e1e-4c0e-b90a-24e3557969b5}, !- Handle
  Office WholeBuilding - Sm Office People Definition, !- Name
  People/Area,                            !- Number of People Calculation Method
  ,                                       !- Number of People {people}
  0.0602778983335744,                     !- People per Space Floor Area {person/m2}
  ,                                       !- Space Floor Area per Person {m2/person}
  0.3,                                    !- Fraction Radiant
  ,                                       !- Sensible Heat Fraction
  ,                                       !- Carbon Dioxide Generation Rate {m3/s-W}
  Yes,                                    !- Enable ASHRAE 55 Comfort Warnings
  ZoneAveraged,                           !- Mean Radiant Temperature Calculation Type
  Fanger;                                 !- Thermal Comfort Model Type 1

OS:Schedule:Ruleset,
  {ffe12d3d-cbf3-469f-99b8-839e8fb6e801}, !- Handle
  Clothing Schedule,                      !- Name
  {e576247c-ef4e-458f-a31d-be941e3b386c}, !- Schedule Type Limits Name
  {0a591cab-8ebd-4144-9007-26f6067ed7db}; !- Default Day Schedule Name

OS:Schedule:Day,
  {0a591cab-8ebd-4144-9007-26f6067ed7db}, !- Handle
  Clothing Schedule Default Winter Clothes, !- Name
  {e576247c-ef4e-458f-a31d-be941e3b386c}, !- Schedule Type Limits Name
  ,                                       !- Interpolate to Timestep
  24,                                     !- Hour 1
  0,                                      !- Minute 1
  1;                                      !- Value Until Time 1

OS:Schedule:Rule,
  {dafc5245-8163-42df-ac85-58c368ae2b29}, !- Handle
  Schedule Rule 1,                        !- Name
  {ffe12d3d-cbf3-469f-99b8-839e8fb6e801}, !- Schedule Ruleset Name
  0,                                      !- Rule Order
  {518303c8-d564-4ff6-826e-a40d10cc2db2}, !- Day Schedule Name
  ,                                       !- Apply Sunday
  ,                                       !- Apply Monday
  ,                                       !- Apply Tuesday
  ,                                       !- Apply Wednesday
  ,                                       !- Apply Thursday
  ,                                       !- Apply Friday
  ,                                       !- Apply Saturday
  DateRange,                              !- Date Specification Type
  5,                                      !- Start Month
  1,                                      !- Start Day
  9,                                      !- End Month
  30;                                     !- End Day

OS:Schedule:Day,
  {518303c8-d564-4ff6-826e-a40d10cc2db2}, !- Handle
  Clothing Schedule Summer Clothes,       !- Name
  {e576247c-ef4e-458f-a31d-be941e3b386c}, !- Schedule Type Limits Name
  ,                                       !- Interpolate to Timestep
  24,                                     !- Hour 1
  0,                                      !- Minute 1
  0.5;                                    !- Value Until Time 1

OS:ScheduleTypeLimits,
  {e576247c-ef4e-458f-a31d-be941e3b386c}, !- Handle
  ClothingInsulation,                     !- Name
  0,                                      !- Lower Limit Value
  ,                                       !- Upper Limit Value
  Continuous,                             !- Numeric Type
  ClothingInsulation;                     !- Unit Type

OS:Schedule:Ruleset,
  {e6006ddf-7778-4679-a342-d790c6e3e472}, !- Handle
  Air Velocity Schedule,                  !- Name
  {73dc72ef-34eb-43a8-bdd6-a6f5b99e3dad}, !- Schedule Type Limits Name
  {3b90c53c-66c9-4180-a6d2-b23e0e9c5a06}; !- Default Day Schedule Name

OS:Schedule:Day,
  {3b90c53c-66c9-4180-a6d2-b23e0e9c5a06}, !- Handle
  Air Velocity Schedule Default,          !- Name
  {73dc72ef-34eb-43a8-bdd6-a6f5b99e3dad}, !- Schedule Type Limits Name
  ,                                       !- Interpolate to Timestep
  24,                                     !- Hour 1
  0,                                      !- Minute 1
  0.2;                                    !- Value Until Time 1

OS:ScheduleTypeLimits,
  {73dc72ef-34eb-43a8-bdd6-a6f5b99e3dad}, !- Handle
  Velocity,                               !- Name
  0,                                      !- Lower Limit Value
  ,                                       !- Upper Limit Value
  Continuous,                             !- Numeric Type
  Velocity;                               !- Unit Type

OS:Schedule:Ruleset,
  {751f3ac7-f30d-43c4-bcbb-407368660b0c}, !- Handle
  Work Efficiency Schedule,               !- Name
  {54f54e40-9c12-474d-92a4-8bc6895ffccd}, !- Schedule Type Limits Name
  {113345e7-6acd-4bb8-ab86-8144ead15a78}; !- Default Day Schedule Name

OS:Schedule:Day,
  {113345e7-6acd-4bb8-ab86-8144ead15a78}, !- Handle
  Work Efficiency Schedule Default,       !- Name
  {54f54e40-9c12-474d-92a4-8bc6895ffccd}, !- Schedule Type Limits Name
  ,                                       !- Interpolate to Timestep
  24,                                     !- Hour 1
  0,                                      !- Minute 1
  0;                                      !- Value Until Time 1

OS:ScheduleTypeLimits,
  {54f54e40-9c12-474d-92a4-8bc6895ffccd}, !- Handle
  Fractional,                             !- Name
  0,                                      !- Lower Limit Value
  1,                                      !- Upper Limit Value
  Continuous;                             !- Numeric Type

OS:Lights:Definition,
  {9ee143f8-9f2f-4f63-be99-f01a126ad7f3}, !- Handle
  Office WholeBuilding - Sm Office Lights Definition, !- Name
  Watts/Area,                             !- Design Level Calculation Method
  ,                                       !- Lighting Level {W}
  8.82640654170197,                       !- Watts per Space Floor Area {W/m2}
  ,                                       !- Watts per Person {W/person}
  0.7,                                    !- Fraction Radiant
  0.2,                                    !- Fraction Visible
  0;                                      !- Return Air Fraction

OS:AdditionalProperties,
  {26a68fff-0904-4ece-bdad-2093ce7083d5}, !- Handle
  {9ee143f8-9f2f-4f63-be99-f01a126ad7f3}, !- Object Name
  lpd_fraction_linear_fluorescent,        !- Feature Name 1
  Double,                                 !- Feature Data Type 1
  1;                                      !- Feature Value 1

OS:ElectricEquipment:Definition,
  {21f29ac5-9ac7-4785-982d-44043de66177}, !- Handle
  Office WholeBuilding - Sm Office Elec Equip Definition, !- Name
  Watts/Area,                             !- Design Level Calculation Method
  ,                                       !- Design Level {W}
  6.78126356252712,                       !- Watts per Space Floor Area {W/m2}
  ,                                       !- Watts per Person {W/person}
  0,                                      !- Fraction Latent
  0,                                      !- Fraction Radiant
  0;                                      !- Fraction Lost

OS:DesignSpecification:OutdoorAir,
  {ef219c6a-4ce1-4c8e-b6ae-1468cd427c05}, !- Handle
  Office WholeBuilding - Sm Office Ventilation, !- Name
  Sum,                                    !- Outdoor Air Method
  ,                                       !- Outdoor Air Flow per Person {m3/s-person}
  0.0004318,                              !- Outdoor Air Flow per Floor Area {m3/s-m2}
  ,                                       !- Outdoor Air Flow Rate {m3/s}
  ,                                       !- Outdoor Air Flow Air Changes per Hour {1/hr}
  ;                                       !- Outdoor Air Flow Rate Fraction Schedule Name

OS:DefaultScheduleSet,
  {ea9d6319-0b90-4c72-a8a8-abecca06a652}, !- Handle
  Office WholeBuilding - Sm Office Schedule Set, !- Name
  ,                                       !- Hours of Operation Schedule Name
  {7e60cb30-4b6e-40d2-ae8c-067607b2cbed}, !- Number of People Schedule Name
  {f6ae0c26-91d4-4e69-ac8f-5a78abec905b}, !- People Activity Level Schedule Name
  {e693426e-54b3-42e2-82ec-b7fa2a27a8dc}, !- Lighting Schedule Name
  {57a5b2ca-5deb-40eb-933a-fffebaeb2073}, !- Electric Equipment Schedule Name
  ,                                       !- Gas Equipment Schedule Name
  ,                                       !- Hot Water Equipment Schedule Name
  {4ba61c72-a2be-431e-be75-0d733af6db2c}, !- Infiltration Schedule Name
  ,                                       !- Steam Equipment Schedule Name
  ;                                       !- Other Equipment Schedule Name

OS:Schedule:Ruleset,
  {7e60cb30-4b6e-40d2-ae8c-067607b2cbed}, !- Handle
  OfficeSmall BLDG_OCC_SCH,               !- Name
  {54f54e40-9c12-474d-92a4-8bc6895ffccd}, !- Schedule Type Limits Name
  {cceb2b48-9e4d-4ff6-b66f-ed6202936c1a}, !- Default Day Schedule Name
  {2f312cb0-27f8-45cf-8f7e-3f7aa2f09b3c}, !- Summer Design Day Schedule Name
  {e07af749-c44d-4edd-97cd-92edaf1f978a}; !- Winter Design Day Schedule Name

OS:Schedule:Day,
  {cceb2b48-9e4d-4ff6-b66f-ed6202936c1a}, !- Handle
  OfficeSmall BLDG_OCC_SCH Default,       !- Name
  {54f54e40-9c12-474d-92a4-8bc6895ffccd}, !- Schedule Type Limits Name
  Yes,                                    !- Interpolate to Timestep
  9,                                      !- Hour 1
  0,                                      !- Minute 1
  0,                                      !- Value Until Time 1
  24,                                     !- Hour 2
  0,                                      !- Minute 2
  0;                                      !- Value Until Time 2

OS:Schedule:Day,
  {e07af749-c44d-4edd-97cd-92edaf1f978a}, !- Handle
  OfficeSmall BLDG_OCC_SCH Winter Design Day, !- Name
  {54f54e40-9c12-474d-92a4-8bc6895ffccd}, !- Schedule Type Limits Name
  ,                                       !- Interpolate to Timestep
  24,                                     !- Hour 1
  0,                                      !- Minute 1
  0;                                      !- Value Until Time 1

OS:Schedule:Day,
  {2f312cb0-27f8-45cf-8f7e-3f7aa2f09b3c}, !- Handle
  OfficeSmall BLDG_OCC_SCH Summer Design Day, !- Name
  {54f54e40-9c12-474d-92a4-8bc6895ffccd}, !- Schedule Type Limits Name
  ,                                       !- Interpolate to Timestep
  24,                                     !- Hour 1
  0,                                      !- Minute 1
  1;                                      !- Value Until Time 1

OS:Schedule:Rule,
  {45985420-7684-416e-8042-eb69888f70ce}, !- Handle
  Schedule Rule 2,                        !- Name
  {7e60cb30-4b6e-40d2-ae8c-067607b2cbed}, !- Schedule Ruleset Name
  0,                                      !- Rule Order
  {247e63d7-e742-4a87-8312-0e16b62a9096}, !- Day Schedule Name
  ,                                       !- Apply Sunday
  Yes,                                    !- Apply Monday
  Yes,                                    !- Apply Tuesday
  Yes,                                    !- Apply Wednesday
  Yes,                                    !- Apply Thursday
  Yes,                                    !- Apply Friday
  ,                                       !- Apply Saturday
  DateRange,                              !- Date Specification Type
  1,                                      !- Start Month
  1,                                      !- Start Day
  12,                                     !- End Month
  31;                                     !- End Day

OS:Schedule:Day,
  {247e63d7-e742-4a87-8312-0e16b62a9096}, !- Handle
  OfficeSmall BLDG_OCC_SCH Wkdy Day,      !- Name
  {54f54e40-9c12-474d-92a4-8bc6895ffccd}, !- Schedule Type Limits Name
  Yes,                                    !- Interpolate to Timestep
  6,                                      !- Hour 1
  30,                                     !- Minute 1
  0,                                      !- Value Until Time 1
  7,                                      !- Hour 2
  30,                                     !- Minute 2
  0.11,                                   !- Value Until Time 2
  8,                                      !- Hour 3
  30,                                     !- Minute 3
  0.21,                                   !- Value Until Time 3
  9,                                      !- Hour 4
  30,                                     !- Minute 4
  1,                                      !- Value Until Time 4
  11,                                     !- Hour 5
  30,                                     !- Minute 5
  1,                                      !- Value Until Time 5
  12,                                     !- Hour 6
  30,                                     !- Minute 6
  0.53,                                   !- Value Until Time 6
  13,                                     !- Hour 7
  30,                                     !- Minute 7
  1,                                      !- Value Until Time 7
  15,                                     !- Hour 8
  30,                                     !- Minute 8
  1,                                      !- Value Until Time 8
  16,                                     !- Hour 9
  30,                                     !- Minute 9
  0.32,                                   !- Value Until Time 9
  17,                                     !- Hour 10
  30,                                     !- Minute 10
  0.11,                                   !- Value Until Time 10
  20,                                     !- Hour 11
  30,                                     !- Minute 11
  0.11,                                   !- Value Until Time 11
  21,                                     !- Hour 12
  30,                                     !- Minute 12
  0.05,                                   !- Value Until Time 12
  22,                                     !- Hour 13
  30,                                     !- Minute 13
  0,                                      !- Value Until Time 13
  24,                                     !- Hour 14
  0,                                      !- Minute 14
  0;                                      !- Value Until Time 14

OS:Schedule:Ruleset,
  {f6ae0c26-91d4-4e69-ac8f-5a78abec905b}, !- Handle
  OfficeSmall ACTIVITY_SCH,               !- Name
  {063e523c-77a6-412f-8f86-92b8e55a9188}, !- Schedule Type Limits Name
  {5e8dac44-642c-4567-a3aa-ee9df7ce9b15}, !- Default Day Schedule Name
  {99df57ca-fa8d-40cc-bc09-daaba6b4a8bd}, !- Summer Design Day Schedule Name
  {e39ba956-e19c-471f-8f06-8e0b40f4b7f9}; !- Winter Design Day Schedule Name

OS:Schedule:Day,
  {5e8dac44-642c-4567-a3aa-ee9df7ce9b15}, !- Handle
  OfficeSmall ACTIVITY_SCH Default,       !- Name
  {063e523c-77a6-412f-8f86-92b8e55a9188}, !- Schedule Type Limits Name
  Yes,                                    !- Interpolate to Timestep
  24,                                     !- Hour 1
  0,                                      !- Minute 1
  120;                                    !- Value Until Time 1

OS:Schedule:Day,
  {e39ba956-e19c-471f-8f06-8e0b40f4b7f9}, !- Handle
  OfficeSmall ACTIVITY_SCH Winter Design Day, !- Name
  {063e523c-77a6-412f-8f86-92b8e55a9188}, !- Schedule Type Limits Name
  ,                                       !- Interpolate to Timestep
  24,                                     !- Hour 1
  0,                                      !- Minute 1
  120;                                    !- Value Until Time 1

OS:Schedule:Day,
  {99df57ca-fa8d-40cc-bc09-daaba6b4a8bd}, !- Handle
  OfficeSmall ACTIVITY_SCH Summer Design Day, !- Name
  {063e523c-77a6-412f-8f86-92b8e55a9188}, !- Schedule Type Limits Name
  ,                                       !- Interpolate to Timestep
  24,                                     !- Hour 1
  0,                                      !- Minute 1
  120;                                    !- Value Until Time 1

OS:ScheduleTypeLimits,
  {063e523c-77a6-412f-8f86-92b8e55a9188}, !- Handle
  ActivityLevel,                          !- Name
  0,                                      !- Lower Limit Value
  ,                                       !- Upper Limit Value
  Continuous,                             !- Numeric Type
  ActivityLevel;                          !- Unit Type

OS:Schedule:Ruleset,
  {e693426e-54b3-42e2-82ec-b7fa2a27a8dc}, !- Handle
  OfficeSmall BLDG_LIGHT_SCH_2013,        !- Name
  {54f54e40-9c12-474d-92a4-8bc6895ffccd}, !- Schedule Type Limits Name
  {f50896a7-3e08-45b5-a8ea-7568bfbf8172}, !- Default Day Schedule Name
  {26a2cf48-9dfc-436c-9299-fbf5df1cbd32}, !- Summer Design Day Schedule Name
  {e08c9ef8-0a18-4711-a124-b0e42d2a3bed}; !- Winter Design Day Schedule Name

OS:Schedule:Day,
  {f50896a7-3e08-45b5-a8ea-7568bfbf8172}, !- Handle
  OfficeSmall BLDG_LIGHT_SCH_2013 Default, !- Name
  {54f54e40-9c12-474d-92a4-8bc6895ffccd}, !- Schedule Type Limits Name
  Yes,                                    !- Interpolate to Timestep
  5,                                      !- Hour 1
  30,                                     !- Minute 1
  0.18,                                   !- Value Until Time 1
  6,                                      !- Hour 2
  30,                                     !- Minute 2
  0.23,                                   !- Value Until Time 2
  7,                                      !- Hour 3
  30,                                     !- Minute 3