
OS:Version,
  {7cb72cbf-7864-4632-860a-93dcbca63ab1}, !- Handle
  3.5.1;                                  !- Version Identifier

OS:Facility,
  {e3d23588-ea18-415d-a98c-9e6d1295ec5d}; !- Handle

OS:Site,
  {6f24e621-fd9e-4337-b903-5ce4a3a716ae}, !- Handle
  Buffalo Niagara Intl Ap_NY_USA,         !- Name
  42.82068520457,                         !- Latitude {deg}
  -78.8512917579592,                      !- Longitude {deg}
  -5,                                     !- Time Zone {hr}
  53.6448,                                !- Elevation {m}
  City;                                   !- Terrain

OS:SimulationControl,
  {3b55823a-53ab-463d-9376-c1d9bd24467d}, !- Handle
  ,                                       !- Do Zone Sizing Calculation
  ,                                       !- Do System Sizing Calculation
  ,                                       !- Do Plant Sizing Calculation
  No,                                     !- Run Simulation for Sizing Periods
  Yes,                                    !- Run Simulation for Weather File Run Periods
  ,                                       !- Loads Convergence Tolerance Value {W}
  ,                                       !- Temperature Convergence Tolerance Value {deltaC}
  ,                                       !- Solar Distribution
  ,                                       !- Maximum Number of Warmup Days
  ,                                       !- Minimum Number of Warmup Days
  No,                                     !- Do HVAC Sizing Simulation for Sizing Periods
  1;                                      !- Maximum Number of HVAC Sizing Simulation Passes

OS:Sizing:Parameters,
  {997e30e4-43c1-4198-8909-13c4b877b131}, !- Handle
  1.25,                                   !- Heating Sizing Factor
  1.15;                                   !- Cooling Sizing Factor

OS:Timestep,
  {b7fce9e2-e4f1-41a3-8fd6-c9b35c435e30}, !- Handle
  1;                                      !- Number of Timesteps per Hour

OS:ShadowCalculation,
  {bf59c157-2042-4544-bf68-2b30a74a751f}, !- Handle
  PolygonClipping,                        !- Shading Calculation Method
  ,                                       !- Shading Calculation Update Frequency Method
  20,                                     !- Shading Calculation Update Frequency
  15000,                                  !- Maximum Figures in Shadow Overlap Calculations
  ,                                       !- Polygon Clipping Algorithm
  512,                                    !- Pixel Counting Resolution
  ,                                       !- Sky Diffuse Modeling Algorithm
  No,                                     !- Output External Shading Calculation Results
  No,                                     !- Disable Self-Shading Within Shading Zone Groups
  No;                                     !- Disable Self-Shading From Shading Zone Groups to Other Zones

OS:HeatBalanceAlgorithm,
  {d2fff89c-e013-4385-a057-8069c5a35aa9}, !- Handle
  ConductionTransferFunction,             !- Algorithm
  200;                                    !- Surface Temperature Upper Limit {C}

OS:RunPeriod,
  {a6f6719d-dc4e-4e4c-994c-311cdd08ccad}, !- Handle
  Run Period 1,                           !- Name
  1,                                      !- Begin Month
  1,                                      !- Begin Day of Month
  12,                                     !- End Month
  31,                                     !- End Day of Month
  ,                                       !- Use Weather File Holidays and Special Days
  ,                                       !- Use Weather File Daylight Saving Period
  ,                                       !- Apply Weekend Holiday Rule
  ,                                       !- Use Weather File Rain Indicators
  ,                                       !- Use Weather File Snow Indicators
  ;                                       !- Number of Times Runperiod to be Repeated

OS:LifeCycleCost:Parameters,
  {0be6e8b7-f35a-4f3a-98d0-72ff04ebe8b2}, !- Handle
  ,                                       !- Analysis Type
  ,                                       !- Discounting Convention
  ,                                       !- Inflation Approach
  ,                                       !- Real Discount Rate
  ,                                       !- Nominal Discount Rate
  ,                                       !- Inflation
  ,                                       !- Base Date Month
  ,                                       !- Base Date Year
  ,                                       !- Service Date Month
  ,                                       !- Service Date Year
  ;                                       !- Length of Study Period in Years

OS:YearDescription,
  {5a560de7-5487-436f-8a1b-c3f7ff7499f9}, !- Handle
  2017,                                   !- Calendar Year
  ,                                       !- Day of Week for Start Day
  ;                                       !- Is Leap Year

OS:WeatherFile,
  {adb3e69f-71d0-4c93-a09c-00a6e5ae3587}, !- Handle
  Buffalo Niagara Intl Ap,                !- City
  NY,                                     !- State Province Region
  USA,                                    !- Country
  TMY3,                                   !- Data Source
  725280,                                 !- WMO Number
  42.93,                                  !- Latitude {deg}
  -78.73,                                 !- Longitude {deg}
  -5,                                     !- Time Zone {hr}
  215,                                    !- Elevation {m}
  /Users/nlong/working/dissertation-analysis/dc/analysis/esbe/activity_3/coincident/weather/USA_NY_Buffalo-Greater.Buffalo.Intl.AP.725280_TMY3.epw, !- Url
  ;                                       !- Checksum

OS:Site:WaterMainsTemperature,
  {fdaab18a-8050-4bea-8ff5-77c4fa47f319}, !- Handle
  Correlation,                            !- Calculation Method
  ,                                       !- Temperature Schedule Name
  8.96666666666667,                       !- Annual Average Outdoor Air Temperature {C}
  26.2;                                   !- Maximum Difference In Monthly Average Outdoor Air Temperatures {deltaC}

OS:SizingPeriod:DesignDay,
  {e1597edd-d06e-4f9c-b94f-dafef2c5e6c5}, !- Handle
  Buffalo Niagara Intl Ap Ann Clg .4% Condns DB=>MWB 1, !- Name
  30.3,                                   !- Maximum Dry-Bulb Temperature {C}
  9.3,                                    !- Daily Dry-Bulb Temperature Range {deltaC}
  98769,                                  !- Barometric Pressure {Pa}
  5.7,                                    !- Wind Speed {m/s}
  240,                                    !- Wind Direction {deg}
  ,                                       !- Sky Clearness
  No,                                     !- Rain Indicator
  No,                                     !- Snow Indicator
  21,                                     !- Day of Month
  7,                                      !- Month
  SummerDesignDay,                        !- Day Type
  No,                                     !- Daylight Saving Time Indicator
  Wetbulb,                                !- Humidity Condition Type
  ,                                       !- Humidity Condition Day Schedule Name
  21.8,                                   !- Wetbulb or DewPoint at Maximum Dry-Bulb {C}
  ,                                       !- Humidity Ratio at Maximum Dry-Bulb {kgWater/kgDryAir}
  ,                                       !- Enthalpy at Maximum Dry-Bulb {J/kg}
  DefaultMultipliers,                     !- Dry-Bulb Temperature Range Modifier Type
  ,                                       !- Dry-Bulb Temperature Range Modifier Day Schedule Name
  ASHRAETau,                              !- Solar Model Indicator
  ,                                       !- Beam Solar Day Schedule Name
  ,                                       !- Diffuse Solar Day Schedule Name
  0.462,                                  !- ASHRAE Clear Sky Optical Depth for Beam Irradiance {dimensionless}
  2.001;                                  !- ASHRAE Clear Sky Optical Depth for Diffuse Irradiance {dimensionless}

OS:SizingPeriod:DesignDay,
  {4db09969-2938-4c60-9f80-3ab03253fe8e}, !- Handle
  Buffalo Niagara Intl Ap Ann Clg .4% Condns WB=>MDB 1, !- Name
  27.8,                                   !- Maximum Dry-Bulb Temperature {C}
  9.3,                                    !- Daily Dry-Bulb Temperature Range {deltaC}
  98769,                                  !- Barometric Pressure {Pa}
  5.7,                                    !- Wind Speed {m/s}
  240,                                    !- Wind Direction {deg}
  ,                                       !- Sky Clearness
  No,                                     !- Rain Indicator
  No,                                     !- Snow Indicator
  21,                                     !- Day of Month
  7,                                      !- Month
  SummerDesignDay,                        !- Day Type
  No,                                     !- Daylight Saving Time Indicator
  Wetbulb,                                !- Humidity Condition Type
  ,                                       !- Humidity Condition Day Schedule Name
  23.8,                                   !- Wetbulb or DewPoint at Maximum Dry-Bulb {C}
  ,                                       !- Humidity Ratio at Maximum Dry-Bulb {kgWater/kgDryAir}
  ,                                       !- Enthalpy at Maximum Dry-Bulb {J/kg}
  DefaultMultipliers,                     !- Dry-Bulb Temperature Range Modifier Type
  ,                                       !- Dry-Bulb Temperature Range Modifier Day Schedule Name
  ASHRAETau,                              !- Solar Model Indicator
  ,                                       !- Beam Solar Day Schedule Name
  ,                                       !- Diffuse Solar Day Schedule Name
  0.462,                                  !- ASHRAE Clear Sky Optical Depth for Beam Irradiance {dimensionless}
  2.001;                                  !- ASHRAE Clear Sky Optical Depth for Diffuse Irradiance {dimensionless}

OS:SizingPeriod:DesignDay,
  {fc35e50d-2b91-48bb-ac0f-adac8178e82b}, !- Handle
  Buffalo Niagara Intl Ap Ann Htg 99.6% Condns DB 1, !- Name
  -16.3,                                  !- Maximum Dry-Bulb Temperature {C}
  0,                                      !- Daily Dry-Bulb Temperature Range {deltaC}
  98769,                                  !- Barometric Pressure {Pa}
  5.1,                                    !- Wind Speed {m/s}
  270,                                    !- Wind Direction {deg}
  0,                                      !- Sky Clearness
  No,                                     !- Rain Indicator
  No,                                     !- Snow Indicator
  21,                                     !- Day of Month
  1,                                      !- Month
  WinterDesignDay,                        !- Day Type
  No,                                     !- Daylight Saving Time Indicator
  Wetbulb,                                !- Humidity Condition Type
  ,                                       !- Humidity Condition Day Schedule Name
  -16.3,                                  !- Wetbulb or DewPoint at Maximum Dry-Bulb {C}
  ,                                       !- Humidity Ratio at Maximum Dry-Bulb {kgWater/kgDryAir}
  ,                                       !- Enthalpy at Maximum Dry-Bulb {J/kg}
  DefaultMultipliers,                     !- Dry-Bulb Temperature Range Modifier Type
  ,                                       !- Dry-Bulb Temperature Range Modifier Day Schedule Name
  ASHRAEClearSky;                         !- Solar Model Indicator

OS:ClimateZones,
  {49e82b2c-b530-4855-b24a-bf5cbbedf6bb}, !- Handle
  ASHRAE,                                 !- Climate Zone Institution Name 1
  ANSI/ASHRAE Standard 169,               !- Climate Zone Document Name 1
  2006,                                   !- Climate Zone Document Year 1
  6A;                                     !- Climate Zone Value 1

OS:Rendering:Color,
  {bd21dea4-7fd7-4d6e-97e5-487b23fd830a}, !- Handle
  Office WholeBuilding - Sm Office,       !- Name
  120,                                    !- Rendering Red Value
  230,                                    !- Rendering Green Value
  199;                                    !- Rendering Blue Value

OS:RunPeriodControl:DaylightSavingTime,
  {9bc5b371-99a1-4980-aa06-821d4d59dcda}, !- Handle
  2nd Sunday in March,                    !- Start Date
  1st Sunday in November;                 !- End Date

OS:People:Definition,
  {bf7068b0-e76f-4551-9f07-ebca1fc30888}, !- Handle
  Office WholeBuilding - Sm Office People Definition, !- Name
  People/Area,                            !- Number of People Calculation Method
  ,                                       !- Number of People {people}
  0.0602778983335744,                     !- People per Space Floor Area {person/m2}
  ,                                       !- Space Floor Area per Person {m2/person}
  0.3,                                    !- Fraction Radiant
  ,                                       !- Sensible Heat Fraction
  ,                                       !- Carbon Dioxide Generation Rate {m3/s-W}
  Yes,                                    !- Enable ASHRAE 55 Comfort Warnings
  ZoneAveraged,                           !- Mean Radiant Temperature Calculation Type
  Fanger;                                 !- Thermal Comfort Model Type 1

OS:Schedule:Ruleset,
  {315e336d-68eb-40b9-91a5-8bf3b40f4cc6}, !- Handle
  Clothing Schedule,                      !- Name
  {832a445a-17df-4287-9e5e-f4c0e1521ea8}, !- Schedule Type Limits Name
  {53b67776-a0a3-403e-9cef-b492824ab691}; !- Default Day Schedule Name

OS:Schedule:Day,
  {53b67776-a0a3-403e-9cef-b492824ab691}, !- Handle
  Clothing Schedule Default Winter Clothes, !- Name
  {832a445a-17df-4287-9e5e-f4c0e1521ea8}, !- Schedule Type Limits Name
  ,                                       !- Interpolate to Timestep
  24,                                     !- Hour 1
  0,                                      !- Minute 1
  1;                                      !- Value Until Time 1

OS:Schedule:Rule,
  {97210478-0884-478f-bd79-da0cf6ce5c1d}, !- Handle
  Schedule Rule 1,                        !- Name
  {315e336d-68eb-40b9-91a5-8bf3b40f4cc6}, !- Schedule Ruleset Name
  0,                                      !- Rule Order
  {1e9f5cb6-a17b-49c9-8e97-2949e6b5b3cf}, !- Day Schedule Name
  ,                                       !- Apply Sunday
  ,                                       !- Apply Monday
  ,                                       !- Apply Tuesday
  ,                                       !- Apply Wednesday
  ,                                       !- Apply Thursday
  ,                                       !- Apply Friday
  ,                                       !- Apply Saturday
  DateRange,                              !- Date Specification Type
  5,                                      !- Start Month
  1,                                      !- Start Day
  9,                                      !- End Month
  30;                                     !- End Day

OS:Schedule:Day,
  {1e9f5cb6-a17b-49c9-8e97-2949e6b5b3cf}, !- Handle
  Clothing Schedule Summer Clothes,       !- Name
  {832a445a-17df-4287-9e5e-f4c0e1521ea8}, !- Schedule Type Limits Name
  ,                                       !- Interpolate to Timestep
  24,                                     !- Hour 1
  0,                                      !- Minute 1
  0.5;                                    !- Value Until Time 1

OS:ScheduleTypeLimits,
  {832a445a-17df-4287-9e5e-f4c0e1521ea8}, !- Handle
  ClothingInsulation,                     !- Name
  0,                                      !- Lower Limit Value
  ,                                       !- Upper Limit Value
  Continuous,                             !- Numeric Type
  ClothingInsulation;                     !- Unit Type

OS:Schedule:Ruleset,
  {b4e7adc6-2bbc-4ee8-b136-8fedbfcb6c35}, !- Handle
  Air Velocity Schedule,                  !- Name
  {1853b823-5121-404b-9788-5c1a8bf6d1d8}, !- Schedule Type Limits Name
  {913f4252-9cdb-4a47-a6d0-8611eb45d7d6}; !- Default Day Schedule Name

OS:Schedule:Day,
  {913f4252-9cdb-4a47-a6d0-8611eb45d7d6}, !- Handle
  Air Velocity Schedule Default,          !- Name
  {1853b823-5121-404b-9788-5c1a8bf6d1d8}, !- Schedule Type Limits Name
  ,                                       !- Interpolate to Timestep
  24,                                     !- Hour 1
  0,                                      !- Minute 1
  0.2;                                    !- Value Until Time 1

OS:ScheduleTypeLimits,
  {1853b823-5121-404b-9788-5c1a8bf6d1d8}, !- Handle
  Velocity,                               !- Name
  0,                                      !- Lower Limit Value
  ,                                       !- Upper Limit Value
  Continuous,                             !- Numeric Type
  Velocity;                               !- Unit Type

OS:Schedule:Ruleset,
  {b5048c22-4af0-4355-9825-8451f18b9da5}, !- Handle
  Work Efficiency Schedule,               !- Name
  {a800683a-2661-49ce-bcbc-34b483a36507}, !- Schedule Type Limits Name
  {70030a21-c7d4-4cd2-be73-1dbb454edae2}; !- Default Day Schedule Name

OS:Schedule:Day,
  {70030a21-c7d4-4cd2-be73-1dbb454edae2}, !- Handle
  Work Efficiency Schedule Default,       !- Name
  {a800683a-2661-49ce-bcbc-34b483a36507}, !- Schedule Type Limits Name
  ,                                       !- Interpolate to Timestep
  24,                                     !- Hour 1
  0,                                      !- Minute 1
  0;                                      !- Value Until Time 1

OS:ScheduleTypeLimits,
  {a800683a-2661-49ce-bcbc-34b483a36507}, !- Handle
  Fractional,                             !- Name
  0,                                      !- Lower Limit Value
  1,                                      !- Upper Limit Value
  Continuous;                             !- Numeric Type

OS:Lights:Definition,
  {873e4b89-c39d-4e33-ae97-5a8eb8ceff34}, !- Handle
  Office WholeBuilding - Sm Office Lights Definition, !- Name
  Watts/Area,                             !- Design Level Calculation Method
  ,                                       !- Lighting Level {W}
  8.82640654170197,                       !- Watts per Space Floor Area {W/m2}
  ,                                       !- Watts per Person {W/person}
  0.7,                                    !- Fraction Radiant
  0.2,                                    !- Fraction Visible
  0;                                      !- Return Air Fraction

OS:AdditionalProperties,
  {a264cc06-f60a-4cda-a36b-e069abd0f00c}, !- Handle
  {873e4b89-c39d-4e33-ae97-5a8eb8ceff34}, !- Object Name
  lpd_fraction_linear_fluorescent,        !- Feature Name 1
  Double,                                 !- Feature Data Type 1
  1;                                      !- Feature Value 1

OS:ElectricEquipment:Definition,
  {06208bc7-3314-4abc-bc39-c6617c5a90ed}, !- Handle
  Office WholeBuilding - Sm Office Elec Equip Definition, !- Name
  Watts/Area,                             !- Design Level Calculation Method
  ,                                       !- Design Level {W}
  6.78126356252712,                       !- Watts per Space Floor Area {W/m2}
  ,                                       !- Watts per Person {W/person}
  0,                                      !- Fraction Latent
  0,                                      !- Fraction Radiant
  0;                                      !- Fraction Lost

OS:DesignSpecification:OutdoorAir,
  {143a933f-3963-4cd3-8b1d-be5a0406c7e7}, !- Handle
  Office WholeBuilding - Sm Office Ventilation, !- Name
  Sum,                                    !- Outdoor Air Method
  ,                                       !- Outdoor Air Flow per Person {m3/s-person}
  0.0004318,                              !- Outdoor Air Flow per Floor Area {m3/s-m2}
  ,                                       !- Outdoor Air Flow Rate {m3/s}
  ,                                       !- Outdoor Air Flow Air Changes per Hour {1/hr}
  ;                                       !- Outdoor Air Flow Rate Fraction Schedule Name

OS:DefaultScheduleSet,
  {1ed1beb0-ff50-42af-ae86-9776f535a777}, !- Handle
  Office WholeBuilding - Sm Office Schedule Set, !- Name
  ,                                       !- Hours of Operation Schedule Name
  {4f77fed7-82c4-4c39-abf9-f172b6b94886}, !- Number of People Schedule Name
  {06893307-9717-4a8c-b9a6-35f5f1b2fcd4}, !- People Activity Level Schedule Name
  {206c296a-1313-431e-9dda-67a25a7b5c7e}, !- Lighting Schedule Name
  {6409c39b-05fe-477a-83e8-34faf31aab76}, !- Electric Equipment Schedule Name
  ,                                       !- Gas Equipment Schedule Name
  ,                                       !- Hot Water Equipment Schedule Name
  {849f9883-ed3f-45ae-8b7c-8a5ab2ffdda3}, !- Infiltration Schedule Name
  ,                                       !- Steam Equipment Schedule Name
  ;                                       !- Other Equipment Schedule Name

OS:Schedule:Ruleset,
  {4f77fed7-82c4-4c39-abf9-f172b6b94886}, !- Handle
  OfficeSmall BLDG_OCC_SCH,               !- Name
  {a800683a-2661-49ce-bcbc-34b483a36507}, !- Schedule Type Limits Name
  {43a247e0-f78b-4153-9cf4-c04afaac25ee}, !- Default Day Schedule Name
  {9660a5a8-50f4-424b-9228-f83c88f2efd3}, !- Summer Design Day Schedule Name
  {e9fef91f-e575-4e9a-92e2-c14691bafce7}; !- Winter Design Day Schedule Name

OS:Schedule:Day,
  {43a247e0-f78b-4153-9cf4-c04afaac25ee}, !- Handle
  OfficeSmall BLDG_OCC_SCH Default,       !- Name
  {a800683a-2661-49ce-bcbc-34b483a36507}, !- Schedule Type Limits Name
  Yes,                                    !- Interpolate to Timestep
  9,                                      !- Hour 1
  0,                                      !- Minute 1
  0,                                      !- Value Until Time 1
  24,                                     !- Hour 2
  0,                                      !- Minute 2
  0;                                      !- Value Until Time 2

OS:Schedule:Day,
  {e9fef91f-e575-4e9a-92e2-c14691bafce7}, !- Handle
  OfficeSmall BLDG_OCC_SCH Winter Design Day, !- Name
  {a800683a-2661-49ce-bcbc-34b483a36507}, !- Schedule Type Limits Name
  ,                                       !- Interpolate to Timestep
  24,                                     !- Hour 1
  0,                                      !- Minute 1
  0;                                      !- Value Until Time 1

OS:Schedule:Day,
  {9660a5a8-50f4-424b-9228-f83c88f2efd3}, !- Handle
  OfficeSmall BLDG_OCC_SCH Summer Design Day, !- Name
  {a800683a-2661-49ce-bcbc-34b483a36507}, !- Schedule Type Limits Name
  ,                                       !- Interpolate to Timestep
  24,                                     !- Hour 1
  0,                                      !- Minute 1
  1;                                      !- Value Until Time 1

OS:Schedule:Rule,
  {a403414e-ceba-4011-a866-b406d18fd714}, !- Handle
  Schedule Rule 2,                        !- Name
  {4f77fed7-82c4-4c39-abf9-f172b6b94886}, !- Schedule Ruleset Name
  0,                                      !- Rule Order
  {bc14323b-b92e-4853-bb95-4c1dc3d97b53}, !- Day Schedule Name
  ,                                       !- Apply Sunday
  Yes,                                    !- Apply Monday
  Yes,                                    !- Apply Tuesday
  Yes,                                    !- Apply Wednesday
  Yes,                                    !- Apply Thursday
  Yes,                                    !- Apply Friday
  ,                                       !- Apply Saturday
  DateRange,                              !- Date Specification Type
  1,                                      !- Start Month
  1,                                      !- Start Day
  12,                                     !- End Month
  31;                                     !- End Day

OS:Schedule:Day,
  {bc14323b-b92e-4853-bb95-4c1dc3d97b53}, !- Handle
  OfficeSmall BLDG_OCC_SCH Wkdy Day,      !- Name
  {a800683a-2661-49ce-bcbc-34b483a36507}, !- Schedule Type Limits Name
  Yes,                                    !- Interpolate to Timestep
  6,                                      !- Hour 1
  30,                                     !- Minute 1
  0,                                      !- Value Until Time 1
  7,                                      !- Hour 2
  30,                                     !- Minute 2
  0.11,                                   !- Value Until Time 2
  8,                                      !- Hour 3
  30,                                     !- Minute 3
  0.21,                                   !- Value Until Time 3
  9,                                      !- Hour 4
  30,                                     !- Minute 4
  1,                                      !- Value Until Time 4
  11,                                     !- Hour 5
  30,                                     !- Minute 5
  1,                                      !- Value Until Time 5
  12,                                     !- Hour 6
  30,                                     !- Minute 6
  0.53,                                   !- Value Until Time 6
  13,                                     !- Hour 7
  30,                                     !- Minute 7
  1,                                      !- Value Until Time 7
  15,                                     !- Hour 8
  30,                                     !- Minute 8
  1,                                      !- Value Until Time 8
  16,                                     !- Hour 9
  30,                                     !- Minute 9
  0.32,                                   !- Value Until Time 9
  17,                                     !- Hour 10
  30,                                     !- Minute 10
  0.11,                                   !- Value Until Time 10
  20,                                     !- Hour 11
  30,                                     !- Minute 11
  0.11,                                   !- Value Until Time 11
  21,                                     !- Hour 12
  30,                                     !- Minute 12
  0.05,                                   !- Value Until Time 12
  22,                                     !- Hour 13
  30,                                     !- Minute 13
  0,                                      !- Value Until Time 13
  24,                                     !- Hour 14
  0,                                      !- Minute 14
  0;                                      !- Value Until Time 14

OS:Schedule:Ruleset,
  {06893307-9717-4a8c-b9a6-35f5f1b2fcd4}, !- Handle
  OfficeSmall ACTIVITY_SCH,               !- Name
  {8cc88edc-17f0-4a0a-b511-569cc62c8e0c}, !- Schedule Type Limits Name
  {248a0bc3-ad70-4c58-9e30-a24f54c9f638}, !- Default Day Schedule Name
  {cc86418d-48a5-45cc-94c6-d7c053f6f82a}, !- Summer Design Day Schedule Name
  {e5019d41-b261-4b5e-925c-3795b8861359}; !- Winter Design Day Schedule Name

OS:Schedule:Day,
  {248a0bc3-ad70-4c58-9e30-a24f54c9f638}, !- Handle
  OfficeSmall ACTIVITY_SCH Default,       !- Name
  {8cc88edc-17f0-4a0a-b511-569cc62c8e0c}, !- Schedule Type Limits Name
  Yes,                                    !- Interpolate to Timestep
  24,                                     !- Hour 1
  0,                                      !- Minute 1
  120;                                    !- Value Until Time 1

OS:Schedule:Day,
  {e5019d41-b261-4b5e-925c-3795b8861359}, !- Handle
  OfficeSmall ACTIVITY_SCH Winter Design Day, !- Name
  {8cc88edc-17f0-4a0a-b511-569cc62c8e0c}, !- Schedule Type Limits Name
  ,                                       !- Interpolate to Timestep
  24,                                     !- Hour 1
  0,                                      !- Minute 1
  120;                                    !- Value Until Time 1

OS:Schedule:Day,
  {cc86418d-48a5-45cc-94c6-d7c053f6f82a}, !- Handle
  OfficeSmall ACTIVITY_SCH Summer Design Day, !- Name
  {8cc88edc-17f0-4a0a-b511-569cc62c8e0c}, !- Schedule Type Limits Name
  ,                                       !- Interpolate to Timestep
  24,                                     !- Hour 1
  0,                                      !- Minute 1
  120;                                    !- Value Until Time 1

OS:ScheduleTypeLimits,
  {8cc88edc-17f0-4a0a-b511-569cc62c8e0c}, !- Handle
  ActivityLevel,                          !- Name
  0,                                      !- Lower Limit Value
  ,                                       !- Upper Limit Value
  Continuous,                             !- Numeric Type
  ActivityLevel;                          !- Unit Type

OS:Schedule:Ruleset,
  {206c296a-1313-431e-9dda-67a25a7b5c7e}, !- Handle
  OfficeSmall BLDG_LIGHT_SCH_2013,        !- Name
  {a800683a-2661-49ce-bcbc-34b483a36507}, !- Schedule Type Limits Name
  {01757f11-54cb-4ea0-a889-c14651bdc3d5}, !- Default Day Schedule Name
  {fadf486b-2eb3-4c87-b2b6-e7d9dd007ebc}, !- Summer Design Day Schedule Name
  {36d481fd-233f-46ea-9673-c4d108c6335a}; !- Winter Design Day Schedule Name

OS:Schedule:Day,
  {01757f11-54cb-4ea0-a889-c14651bdc3d5}, !- Handle
  OfficeSmall BLDG_LIGHT_SCH_2013 Default, !- Name
  {a800683a-2661-49ce-bcbc-34b483a36507}, !- Schedule Type Limits Name
  Yes,                                    !- Interpolate to Timestep
  5,                                      !- Hour 1
  30,                                     !- Minute 1
  0.18,                                   !- Value Until Time 1
  6,                                      !- Hour 2
  30,                                     !- Minute 2
  0.23,                                   !- Value Until Time 2
  7,                                      !- Hour 3
  30,                                     !- Minute 3