
OS:Version,
  {fac0c62e-f3f7-439a-a4f3-d8564d9b9b08}, !- Handle
  3.5.1;                                  !- Version Identifier

OS:Facility,
  {2512cce6-373c-446c-8e88-aec60597e16b}; !- Handle

OS:Site,
  {f9913d92-b49a-4cb2-955e-37353b4676b6}, !- Handle
  Buffalo Niagara Intl Ap_NY_USA,         !- Name
  42.8205113490114,                       !- Latitude {deg}
  -78.8529043731977,                      !- Longitude {deg}
  -5,                                     !- Time Zone {hr}
  53.6448,                                !- Elevation {m}
  City;                                   !- Terrain

OS:SimulationControl,
  {4f4cf0b5-2cf9-4050-807a-d353c7a44451}, !- Handle
  ,                                       !- Do Zone Sizing Calculation
  ,                                       !- Do System Sizing Calculation
  ,                                       !- Do Plant Sizing Calculation
  No,                                     !- Run Simulation for Sizing Periods
  Yes,                                    !- Run Simulation for Weather File Run Periods
  ,                                       !- Loads Convergence Tolerance Value {W}
  ,                                       !- Temperature Convergence Tolerance Value {deltaC}
  ,                                       !- Solar Distribution
  ,                                       !- Maximum Number of Warmup Days
  ,                                       !- Minimum Number of Warmup Days
  No,                                     !- Do HVAC Sizing Simulation for Sizing Periods
  1;                                      !- Maximum Number of HVAC Sizing Simulation Passes

OS:Sizing:Parameters,
  {a80264d5-29c4-46f3-ad5e-743f76ba1ead}, !- Handle
  1.25,                                   !- Heating Sizing Factor
  1.15;                                   !- Cooling Sizing Factor

OS:Timestep,
  {649d0c04-7288-4704-9f4c-727f6a4a8153}, !- Handle
  1;                                      !- Number of Timesteps per Hour

OS:ShadowCalculation,
  {b2fb0d94-ff99-442c-916f-271cafd396c5}, !- Handle
  PolygonClipping,                        !- Shading Calculation Method
  ,                                       !- Shading Calculation Update Frequency Method
  20,                                     !- Shading Calculation Update Frequency
  15000,                                  !- Maximum Figures in Shadow Overlap Calculations
  ,                                       !- Polygon Clipping Algorithm
  512,                                    !- Pixel Counting Resolution
  ,                                       !- Sky Diffuse Modeling Algorithm
  No,                                     !- Output External Shading Calculation Results
  No,                                     !- Disable Self-Shading Within Shading Zone Groups
  No;                                     !- Disable Self-Shading From Shading Zone Groups to Other Zones

OS:HeatBalanceAlgorithm,
  {2da21359-b307-4594-983e-d1b1fe220c93}, !- Handle
  ConductionTransferFunction,             !- Algorithm
  200;                                    !- Surface Temperature Upper Limit {C}

OS:RunPeriod,
  {15304597-caeb-48c4-9e12-ad9c5ccd06c0}, !- Handle
  Run Period 1,                           !- Name
  1,                                      !- Begin Month
  1,                                      !- Begin Day of Month
  12,                                     !- End Month
  31,                                     !- End Day of Month
  ,                                       !- Use Weather File Holidays and Special Days
  ,                                       !- Use Weather File Daylight Saving Period
  ,                                       !- Apply Weekend Holiday Rule
  ,                                       !- Use Weather File Rain Indicators
  ,                                       !- Use Weather File Snow Indicators
  ;                                       !- Number of Times Runperiod to be Repeated

OS:LifeCycleCost:Parameters,
  {f067d3ee-80b8-4912-b18c-4f6a06682889}, !- Handle
  ,                                       !- Analysis Type
  ,                                       !- Discounting Convention
  ,                                       !- Inflation Approach
  ,                                       !- Real Discount Rate
  ,                                       !- Nominal Discount Rate
  ,                                       !- Inflation
  ,                                       !- Base Date Month
  ,                                       !- Base Date Year
  ,                                       !- Service Date Month
  ,                                       !- Service Date Year
  ;                                       !- Length of Study Period in Years

OS:YearDescription,
  {29ac59cf-2afd-4319-af9e-b897c5f2286c}, !- Handle
  2017,                                   !- Calendar Year
  ,                                       !- Day of Week for Start Day
  ;                                       !- Is Leap Year

OS:WeatherFile,
  {027fd753-c352-4fca-ace6-a63df8c314aa}, !- Handle
  Buffalo Niagara Intl Ap,                !- City
  NY,                                     !- State Province Region
  USA,                                    !- Country
  TMY3,                                   !- Data Source
  725280,                                 !- WMO Number
  42.93,                                  !- Latitude {deg}
  -78.73,                                 !- Longitude {deg}
  -5,                                     !- Time Zone {hr}
  215,                                    !- Elevation {m}
  /Users/nlong/working/dissertation-analysis/dc/analysis/esbe/activity_3/coincident/weather/USA_NY_Buffalo-Greater.Buffalo.Intl.AP.725280_TMY3.epw, !- Url
  ;                                       !- Checksum

OS:Site:WaterMainsTemperature,
  {cec03d8b-47ed-4664-91d5-60c29d494216}, !- Handle
  Correlation,                            !- Calculation Method
  ,                                       !- Temperature Schedule Name
  8.96666666666667,                       !- Annual Average Outdoor Air Temperature {C}
  26.2;                                   !- Maximum Difference In Monthly Average Outdoor Air Temperatures {deltaC}

OS:SizingPeriod:DesignDay,
  {fe19c8bf-67f6-49b7-a4a2-aa557b35b863}, !- Handle
  Buffalo Niagara Intl Ap Ann Clg .4% Condns DB=>MWB 1, !- Name
  30.3,                                   !- Maximum Dry-Bulb Temperature {C}
  9.3,                                    !- Daily Dry-Bulb Temperature Range {deltaC}
  98769,                                  !- Barometric Pressure {Pa}
  5.7,                                    !- Wind Speed {m/s}
  240,                                    !- Wind Direction {deg}
  ,                                       !- Sky Clearness
  No,                                     !- Rain Indicator
  No,                                     !- Snow Indicator
  21,                                     !- Day of Month
  7,                                      !- Month
  SummerDesignDay,                        !- Day Type
  No,                                     !- Daylight Saving Time Indicator
  Wetbulb,                                !- Humidity Condition Type
  ,                                       !- Humidity Condition Day Schedule Name
  21.8,                                   !- Wetbulb or DewPoint at Maximum Dry-Bulb {C}
  ,                                       !- Humidity Ratio at Maximum Dry-Bulb {kgWater/kgDryAir}
  ,                                       !- Enthalpy at Maximum Dry-Bulb {J/kg}
  DefaultMultipliers,                     !- Dry-Bulb Temperature Range Modifier Type
  ,                                       !- Dry-Bulb Temperature Range Modifier Day Schedule Name
  ASHRAETau,                              !- Solar Model Indicator
  ,                                       !- Beam Solar Day Schedule Name
  ,                                       !- Diffuse Solar Day Schedule Name
  0.462,                                  !- ASHRAE Clear Sky Optical Depth for Beam Irradiance {dimensionless}
  2.001;                                  !- ASHRAE Clear Sky Optical Depth for Diffuse Irradiance {dimensionless}

OS:SizingPeriod:DesignDay,
  {d5b9c9c9-1244-4f8d-abbd-4bca4779a9a8}, !- Handle
  Buffalo Niagara Intl Ap Ann Clg .4% Condns WB=>MDB 1, !- Name
  27.8,                                   !- Maximum Dry-Bulb Temperature {C}
  9.3,                                    !- Daily Dry-Bulb Temperature Range {deltaC}
  98769,                                  !- Barometric Pressure {Pa}
  5.7,                                    !- Wind Speed {m/s}
  240,                                    !- Wind Direction {deg}
  ,                                       !- Sky Clearness
  No,                                     !- Rain Indicator
  No,                                     !- Snow Indicator
  21,                                     !- Day of Month
  7,                                      !- Month
  SummerDesignDay,                        !- Day Type
  No,                                     !- Daylight Saving Time Indicator
  Wetbulb,                                !- Humidity Condition Type
  ,                                       !- Humidity Condition Day Schedule Name
  23.8,                                   !- Wetbulb or DewPoint at Maximum Dry-Bulb {C}
  ,                                       !- Humidity Ratio at Maximum Dry-Bulb {kgWater/kgDryAir}
  ,                                       !- Enthalpy at Maximum Dry-Bulb {J/kg}
  DefaultMultipliers,                     !- Dry-Bulb Temperature Range Modifier Type
  ,                                       !- Dry-Bulb Temperature Range Modifier Day Schedule Name
  ASHRAETau,                              !- Solar Model Indicator
  ,                                       !- Beam Solar Day Schedule Name
  ,                                       !- Diffuse Solar Day Schedule Name
  0.462,                                  !- ASHRAE Clear Sky Optical Depth for Beam Irradiance {dimensionless}
  2.001;                                  !- ASHRAE Clear Sky Optical Depth for Diffuse Irradiance {dimensionless}

OS:SizingPeriod:DesignDay,
  {af6828ab-e922-401a-accd-7698a4f531c8}, !- Handle
  Buffalo Niagara Intl Ap Ann Htg 99.6% Condns DB 1, !- Name
  -16.3,                                  !- Maximum Dry-Bulb Temperature {C}
  0,                                      !- Daily Dry-Bulb Temperature Range {deltaC}
  98769,                                  !- Barometric Pressure {Pa}
  5.1,                                    !- Wind Speed {m/s}
  270,                                    !- Wind Direction {deg}
  0,                                      !- Sky Clearness
  No,                                     !- Rain Indicator
  No,                                     !- Snow Indicator
  21,                                     !- Day of Month
  1,                                      !- Month
  WinterDesignDay,                        !- Day Type
  No,                                     !- Daylight Saving Time Indicator
  Wetbulb,                                !- Humidity Condition Type
  ,                                       !- Humidity Condition Day Schedule Name
  -16.3,                                  !- Wetbulb or DewPoint at Maximum Dry-Bulb {C}
  ,                                       !- Humidity Ratio at Maximum Dry-Bulb {kgWater/kgDryAir}
  ,                                       !- Enthalpy at Maximum Dry-Bulb {J/kg}
  DefaultMultipliers,                     !- Dry-Bulb Temperature Range Modifier Type
  ,                                       !- Dry-Bulb Temperature Range Modifier Day Schedule Name
  ASHRAEClearSky;                         !- Solar Model Indicator

OS:ClimateZones,
  {984ff693-4e8f-465e-8676-93485b08a4fe}, !- Handle
  ASHRAE,                                 !- Climate Zone Institution Name 1
  ANSI/ASHRAE Standard 169,               !- Climate Zone Document Name 1
  2006,                                   !- Climate Zone Document Year 1
  6A;                                     !- Climate Zone Value 1

OS:Rendering:Color,
  {5170a008-df08-474f-85f0-c69dbc3e9f48}, !- Handle
  StripMall Strip mall - type 1,          !- Name
  171,                                    !- Rendering Red Value
  222,                                    !- Rendering Green Value
  78;                                     !- Rendering Blue Value

OS:Rendering:Color,
  {504fa37e-0767-4153-9106-1103e589e484}, !- Handle
  StripMall Strip mall - type 2,          !- Name
  171,                                    !- Rendering Red Value
  222,                                    !- Rendering Green Value
  78;                                     !- Rendering Blue Value

OS:Rendering:Color,
  {12f59d57-b883-486c-b189-70b882d99c7e}, !- Handle
  StripMall Strip mall - type 3,          !- Name
  171,                                    !- Rendering Red Value
  222,                                    !- Rendering Green Value
  78;                                     !- Rendering Blue Value

OS:RunPeriodControl:DaylightSavingTime,
  {5ce9d553-288e-4ad2-981c-b2b12171d03d}, !- Handle
  2nd Sunday in March,                    !- Start Date
  1st Sunday in November;                 !- End Date

OS:People:Definition,
  {37163617-7549-4713-a2a9-93d5ad8f7487}, !- Handle
  StripMall Strip mall - type 1 People Definition, !- Name
  People/Area,                            !- Number of People Calculation Method
  ,                                       !- Number of People {people}
  0.0861112833336778,                     !- People per Space Floor Area {person/m2}
  ,                                       !- Space Floor Area per Person {m2/person}
  0.3,                                    !- Fraction Radiant
  ,                                       !- Sensible Heat Fraction
  ,                                       !- Carbon Dioxide Generation Rate {m3/s-W}
  Yes,                                    !- Enable ASHRAE 55 Comfort Warnings
  ZoneAveraged,                           !- Mean Radiant Temperature Calculation Type
  Fanger;                                 !- Thermal Comfort Model Type 1

OS:Schedule:Ruleset,
  {92b75eb7-6df7-4672-9bf8-338f98470466}, !- Handle
  Clothing Schedule,                      !- Name
  {7cc225eb-0eaa-4ce7-91e3-69a1ffa2a1b3}, !- Schedule Type Limits Name
  {1ebb1f31-74bb-48b2-950f-92481ea9a88b}; !- Default Day Schedule Name

OS:Schedule:Day,
  {1ebb1f31-74bb-48b2-950f-92481ea9a88b}, !- Handle
  Clothing Schedule Default Winter Clothes, !- Name
  {7cc225eb-0eaa-4ce7-91e3-69a1ffa2a1b3}, !- Schedule Type Limits Name
  ,                                       !- Interpolate to Timestep
  24,                                     !- Hour 1
  0,                                      !- Minute 1
  1;                                      !- Value Until Time 1

OS:Schedule:Rule,
  {66548797-d860-475e-ad63-a97a3904354e}, !- Handle
  Schedule Rule 1,                        !- Name
  {92b75eb7-6df7-4672-9bf8-338f98470466}, !- Schedule Ruleset Name
  0,                                      !- Rule Order
  {eeb15da1-702f-4085-8e20-cdef36fcc7fc}, !- Day Schedule Name
  ,                                       !- Apply Sunday
  ,                                       !- Apply Monday
  ,                                       !- Apply Tuesday
  ,                                       !- Apply Wednesday
  ,                                       !- Apply Thursday
  ,                                       !- Apply Friday
  ,                                       !- Apply Saturday
  DateRange,                              !- Date Specification Type
  5,                                      !- Start Month
  1,                                      !- Start Day
  9,                                      !- End Month
  30;                                     !- End Day

OS:Schedule:Day,
  {eeb15da1-702f-4085-8e20-cdef36fcc7fc}, !- Handle
  Clothing Schedule Summer Clothes,       !- Name
  {7cc225eb-0eaa-4ce7-91e3-69a1ffa2a1b3}, !- Schedule Type Limits Name
  ,                                       !- Interpolate to Timestep
  24,                                     !- Hour 1
  0,                                      !- Minute 1
  0.5;                                    !- Value Until Time 1

OS:ScheduleTypeLimits,
  {7cc225eb-0eaa-4ce7-91e3-69a1ffa2a1b3}, !- Handle
  ClothingInsulation,                     !- Name
  0,                                      !- Lower Limit Value
  ,                                       !- Upper Limit Value
  Continuous,                             !- Numeric Type
  ClothingInsulation;                     !- Unit Type

OS:Schedule:Ruleset,
  {20ba50d3-2b42-4562-8acb-d7f60e6ea089}, !- Handle
  Air Velocity Schedule,                  !- Name
  {27c14101-62ba-4833-87b0-d2713f53c9e4}, !- Schedule Type Limits Name
  {8b5d7cb2-9d59-409c-b0f9-9e0da814e3f8}; !- Default Day Schedule Name

OS:Schedule:Day,
  {8b5d7cb2-9d59-409c-b0f9-9e0da814e3f8}, !- Handle
  Air Velocity Schedule Default,          !- Name
  {27c14101-62ba-4833-87b0-d2713f53c9e4}, !- Schedule Type Limits Name
  ,                                       !- Interpolate to Timestep
  24,                                     !- Hour 1
  0,                                      !- Minute 1
  0.2;                                    !- Value Until Time 1

OS:ScheduleTypeLimits,
  {27c14101-62ba-4833-87b0-d2713f53c9e4}, !- Handle
  Velocity,                               !- Name
  0,                                      !- Lower Limit Value
  ,                                       !- Upper Limit Value
  Continuous,                             !- Numeric Type
  Velocity;                               !- Unit Type

OS:Schedule:Ruleset,
  {8c0b0d98-a50c-4ece-8adb-fc6e4281666b}, !- Handle
  Work Efficiency Schedule,               !- Name
  {03b6e033-8ec8-4748-abdd-c5d3341cab5e}, !- Schedule Type Limits Name
  {9801d338-fd97-4374-b7fe-80ae1b227cb2}; !- Default Day Schedule Name

OS:Schedule:Day,
  {9801d338-fd97-4374-b7fe-80ae1b227cb2}, !- Handle
  Work Efficiency Schedule Default,       !- Name
  {03b6e033-8ec8-4748-abdd-c5d3341cab5e}, !- Schedule Type Limits Name
  ,                                       !- Interpolate to Timestep
  24,                                     !- Hour 1
  0,                                      !- Minute 1
  0;                                      !- Value Until Time 1

OS:ScheduleTypeLimits,
  {03b6e033-8ec8-4748-abdd-c5d3341cab5e}, !- Handle
  Fractional,                             !- Name
  0,                                      !- Lower Limit Value
  1,                                      !- Upper Limit Value
  Continuous;                             !- Numeric Type

OS:Lights:Definition,
  {ba102348-7cf0-453a-bc1c-2b774ed3faed}, !- Handle
  StripMall Strip mall - type 1 Lights Definition, !- Name
  Watts/Area,                             !- Design Level Calculation Method
  ,                                       !- Lighting Level {W}
  13.5625271250542,                       !- Watts per Space Floor Area {W/m2}
  ,                                       !- Watts per Person {W/person}
  0.7,                                    !- Fraction Radiant
  0.2,                                    !- Fraction Visible
  0;                                      !- Return Air Fraction

OS:AdditionalProperties,
  {4dd78b06-a67d-43ff-a7ad-856c88aa6db7}, !- Handle
  {ba102348-7cf0-453a-bc1c-2b774ed3faed}, !- Object Name
  lpd_fraction_linear_fluorescent,        !- Feature Name 1
  Double,                                 !- Feature Data Type 1
  1;                                      !- Feature Value 1

OS:Lights:Definition,
  {b185a93c-36dd-41de-b2aa-d0a2a039c0c8}, !- Handle
  StripMall Strip mall - type 1 Additional Lights Definition, !- Name
  Watts/Area,                             !- Design Level Calculation Method
  ,                                       !- Lighting Level {W}
  7.53473729169681,                       !- Watts per Space Floor Area {W/m2}
  ,                                       !- Watts per Person {W/person}
  0.7,                                    !- Fraction Radiant
  0.2,                                    !- Fraction Visible
  0;                                      !- Return Air Fraction

OS:AdditionalProperties,
  {27f1277d-24ba-4f63-8b41-84607d3be99c}, !- Handle
  {b185a93c-36dd-41de-b2aa-d0a2a039c0c8}, !- Object Name
  lpd_fraction_linear_fluorescent,        !- Feature Name 1
  Double,                                 !- Feature Data Type 1
  0,                                      !- Feature Value 1
  lpd_fraction_compact_fluorescent,       !- Feature Name 2
  Double,                                 !- Feature Data Type 2
  0,                                      !- Feature Value 2
  lpd_fraction_high_bay,                  !- Feature Name 3
  Double,                                 !- Feature Data Type 3
  0,                                      !- Feature Value 3
  lpd_fraction_specialty_lighting,        !- Feature Name 4
  Double,                                 !- Feature Data Type 4
  1,                                      !- Feature Value 4
  lpd_fraction_exit_lighting,             !- Feature Name 5
  Double,                                 !- Feature Data Type 5
  0;                                      !- Feature Value 5

OS:ElectricEquipment:Definition,
  {779cc954-67e9-426b-9e71-686a1a0e5d05}, !- Handle
  StripMall Strip mall - type 1 Elec Equip Definition, !- Name
  Watts/Area,                             !- Design Level Calculation Method
  ,                                       !- Design Level {W}
  4.30556416668389,                       !- Watts per Space Floor Area {W/m2}
  ,                                       !- Watts per Person {W/person}
  0,                                      !- Fraction Latent
  0.5,                                    !- Fraction Radiant
  0;                                      !- Fraction Lost

OS:DesignSpecification:OutdoorAir,
  {4154677a-2289-4853-8b88-54941c89ce8f}, !- Handle
  StripMall Strip mall - type 1 Ventilation, !- Name
  Sum,                                    !- Outdoor Air Method
  ,                                       !- Outdoor Air Flow per Person {m3/s-person}
  0.0011811,                              !- Outdoor Air Flow per Floor Area {m3/s-m2}
  ,                                       !- Outdoor Air Flow Rate {m3/s}
  ,                                       !- Outdoor Air Flow Air Changes per Hour {1/hr}
  ;                                       !- Outdoor Air Flow Rate Fraction Schedule Name

OS:DefaultScheduleSet,
  {e8db9f3d-d3c3-47e4-a135-c1b974ae1c97}, !- Handle
  StripMall Strip mall - type 1 Schedule Set, !- Name
  ,                                       !- Hours of Operation Schedule Name
  {ff9be123-b89b-44b8-aadd-ab1ca13fbcce}, !- Number of People Schedule Name
  {4cb79550-39aa-4552-b45e-c94858e03375}, !- People Activity Level Schedule Name
  {333f4729-dbcc-4ad6-89d6-8106c4a7f5aa}, !- Lighting Schedule Name
  {1b4aa96b-8fb3-4208-87eb-df9e46c0065c}, !- Electric Equipment Schedule Name
  ,                                       !- Gas Equipment Schedule Name
  ,                                       !- Hot Water Equipment Schedule Name
  {8216d0ca-4370-44e0-a273-2b4e39d08799}, !- Infiltration Schedule Name
  ,                                       !- Steam Equipment Schedule Name
  ;                                       !- Other Equipment Schedule Name

OS:Schedule:Ruleset,
  {ff9be123-b89b-44b8-aadd-ab1ca13fbcce}, !- Handle
  RetailStripmall Type1_OCC_SCH,          !- Name
  {03b6e033-8ec8-4748-abdd-c5d3341cab5e}, !- Schedule Type Limits Name
  {48087581-6824-4cd1-a606-dbbf511eefc9}, !- Default Day Schedule Name
  {89c66801-203c-4376-9d73-6db1d788d177}, !- Summer Design Day Schedule Name
  {f175aaaa-0206-4ed0-b46a-bcaa762e011b}; !- Winter Design Day Schedule Name

OS:Schedule:Day,
  {48087581-6824-4cd1-a606-dbbf511eefc9}, !- Handle
  RetailStripmall Type1_OCC_SCH Default,  !- Name
  {03b6e033-8ec8-4748-abdd-c5d3341cab5e}, !- Schedule Type Limits Name
  Yes,                                    !- Interpolate to Timestep
  0,                                      !- Hour 1
  30,                                     !- Minute 1
  0,                                      !- Value Until Time 1
  7,                                      !- Hour 2
  0,                                      !- Minute 2
  0,                                      !- Value Until Time 2
  8,                                      !- Hour 3
  0,                                      !- Minute 3
  0.025,                                  !- Value Until Time 3
  9,                                      !- Hour 4
  0,                                      !- Minute 4
  0.05,                                   !- Value Until Time 4
  9,                                      !- Hour 5
  30,                                     !- Minute 5
  0.05,                                   !- Value Until Time 5
  10,                                     !- Hour 6
  30,                                     !- Minute 6
  0.1,                                    !- Value Until Time 6
  11,                                     !- Hour 7
  30,                                     !- Minute 7
  0.2,                                    !- Value Until Time 7
  12,                                     !- Hour 8
  30,                                     !- Minute 8
  0.4,                                    !- Value Until Time 8
  13,                                     !- Hour 9
  30,                                     !- Minute 9
  0.6,                                    !- Value Until Time 9
  14,                                     !- Hour 10
  30,                                     !- Minute 10
  0.4,                                    !- Value Until Time 10
  15,                                     !- Hour 11
  30,                                     !- Minute 11
  0.4,                                    !- Value Until Time 11
  16,                                     !- Hour 12
  30,                                     !- Minute 12
  0.3,                                    !- Value Until Time 12
  17,                                     !- Hour 13
  30,                                     !- Minute 13
  0.6,                                    !- Value Until Time 13
  18,                                     !- Hour 14
  0,                                      !- Minute 14
  0.6,                                    !- Value Until Time 14
  19,                                     !- Hour 15
  0,                                      !- Minute 15
  0.5,                                    !- Value Until Time 15
  20,                                     !- Hour 16
  0,                                      !- Minute 16
  0.4,                                    !- Value Until Time 16
  20,                                     !- Hour 17
  30,                                     !- Minute 17
  0.4,                                    !- Value Until Time 17
  21,                                     !- Hour 18
  30,                                     !- Minute 18
  0.3,                                    !- Value Until Time 18
  22,                                     !- Hour 19
  30,                                     !- Minute 19
  0.2,                                    !- Value Until Time 19
  23,                                     !- Hour 20
  30,                                     !- Minute 20
  0.05,                                   !- Value Until Time 20
  24,                                     !- Hour 21
  0,                                      !- Minute 21
  0;                                      !- Value Until Time 21

OS:Schedule:Rule,
  {ec05d04f-68cc-4ede-9214-16dd67afa04a}, !- Handle
  Schedule Rule 2,                        !- Name
  {ff9be123-b89b-44b8-aadd-ab1ca13fbcce}, !- Schedule Ruleset Name
  1,                                      !- Rule Order
  {04d12fe2-7917-4b12-b7da-ec7e2c7a657c}, !- Day Schedule Name
  ,                                       !- Apply Sunday
  Yes,                                    !- Apply Monday
  Yes,                                    !- Apply Tuesday
  Yes,                                    !- Apply Wednesday
  Yes,                                    !- Apply Thursday
  ,                                       !- Apply Friday
  ,                                       !- Apply Saturday
  DateRange,                              !- Date Specification Type
  1,                                      !- Start Month
  1,                                      !- Start Day
  12,                                     !- End Month
  31;                                     !- End Day

OS:Schedule:Day,
  {04d12fe2-7917-4b12-b7da-ec7e2c7a657c}, !- Handle
  RetailStripmall Type1_OCC_SCH Mon|Tue|Wed|Thu Day, !- Name
  {03b6e033-8ec8-4748-abdd-c5d3341cab5e}, !- Schedule Type Limits Name
  Yes,                                    !- Interpolate to Timestep
  7,                                      !- Hour 1
  0,                                      !- Minute 1
  0,                                      !- Value Until Time 1
  8,                                      !- Hour 2
  0,                                      !- Minute 2
  0.025,                                  !- Value Until Time 2
  9,                                      !- Hour 3
  0,                                      !- Minute 3
  0.05,                                   !- Value Until Time 3
  10,                                     !- Hour 4
  0,                                      !- Minute 4
  0.075,                                  !- Value Until Time 4
  11,                                     !- Hour 5
  0,                                      !- Minute 5
  0.1,                                    !- Value Until Time 5