
OS:Version,
  {9088fd44-c153-43b7-9b6f-19207c5424f1}, !- Handle
  3.5.1;                                  !- Version Identifier

OS:Facility,
  {92d099ae-2e40-41d4-8fbf-c08e2e98e6f5}; !- Handle

OS:Site,
  {6cf91609-46c0-40f0-a594-b7044736e09f}, !- Handle
  Buffalo Niagara Intl Ap_NY_USA,         !- Name
  42.8194403674158,                       !- Latitude {deg}
  -78.8525400212367,                      !- Longitude {deg}
  -5,                                     !- Time Zone {hr}
  53.6448,                                !- Elevation {m}
  City;                                   !- Terrain

OS:SimulationControl,
  {4fb96b8e-9529-42fc-81ae-c875e28a52f7}, !- Handle
  ,                                       !- Do Zone Sizing Calculation
  ,                                       !- Do System Sizing Calculation
  ,                                       !- Do Plant Sizing Calculation
  No,                                     !- Run Simulation for Sizing Periods
  Yes,                                    !- Run Simulation for Weather File Run Periods
  ,                                       !- Loads Convergence Tolerance Value {W}
  ,                                       !- Temperature Convergence Tolerance Value {deltaC}
  ,                                       !- Solar Distribution
  ,                                       !- Maximum Number of Warmup Days
  ,                                       !- Minimum Number of Warmup Days
  No,                                     !- Do HVAC Sizing Simulation for Sizing Periods
  1;                                      !- Maximum Number of HVAC Sizing Simulation Passes

OS:Sizing:Parameters,
  {7cc8de7b-8430-4b37-a41c-f70a0d173ad0}, !- Handle
  1.25,                                   !- Heating Sizing Factor
  1.15;                                   !- Cooling Sizing Factor

OS:Timestep,
  {332ef37b-a083-4dde-aec2-5c313fcebeeb}, !- Handle
  1;                                      !- Number of Timesteps per Hour

OS:ShadowCalculation,
  {51ae6848-f410-4bf4-870f-0d7d3a9cd1e7}, !- Handle
  PolygonClipping,                        !- Shading Calculation Method
  ,                                       !- Shading Calculation Update Frequency Method
  20,                                     !- Shading Calculation Update Frequency
  15000,                                  !- Maximum Figures in Shadow Overlap Calculations
  ,                                       !- Polygon Clipping Algorithm
  512,                                    !- Pixel Counting Resolution
  ,                                       !- Sky Diffuse Modeling Algorithm
  No,                                     !- Output External Shading Calculation Results
  No,                                     !- Disable Self-Shading Within Shading Zone Groups
  No;                                     !- Disable Self-Shading From Shading Zone Groups to Other Zones

OS:HeatBalanceAlgorithm,
  {4f82be3f-65a6-46c9-a780-6e8b613919b4}, !- Handle
  ConductionTransferFunction,             !- Algorithm
  200;                                    !- Surface Temperature Upper Limit {C}

OS:RunPeriod,
  {a81d8df7-1ef2-4776-b5fc-141ef69d6780}, !- Handle
  Run Period 1,                           !- Name
  1,                                      !- Begin Month
  1,                                      !- Begin Day of Month
  12,                                     !- End Month
  31,                                     !- End Day of Month
  ,                                       !- Use Weather File Holidays and Special Days
  ,                                       !- Use Weather File Daylight Saving Period
  ,                                       !- Apply Weekend Holiday Rule
  ,                                       !- Use Weather File Rain Indicators
  ,                                       !- Use Weather File Snow Indicators
  ;                                       !- Number of Times Runperiod to be Repeated

OS:LifeCycleCost:Parameters,
  {e8711644-054d-4e14-9074-70ef7a4e7ec2}, !- Handle
  ,                                       !- Analysis Type
  ,                                       !- Discounting Convention
  ,                                       !- Inflation Approach
  ,                                       !- Real Discount Rate
  ,                                       !- Nominal Discount Rate
  ,                                       !- Inflation
  ,                                       !- Base Date Month
  ,                                       !- Base Date Year
  ,                                       !- Service Date Month
  ,                                       !- Service Date Year
  ;                                       !- Length of Study Period in Years

OS:YearDescription,
  {3fbea1f9-ff8b-40dd-8496-712df9503e9f}, !- Handle
  2017,                                   !- Calendar Year
  ,                                       !- Day of Week for Start Day
  ;                                       !- Is Leap Year

OS:WeatherFile,
  {0e9039f8-4d27-42e3-9eba-304708392350}, !- Handle
  Buffalo Niagara Intl Ap,                !- City
  NY,                                     !- State Province Region
  USA,                                    !- Country
  TMY3,                                   !- Data Source
  725280,                                 !- WMO Number
  42.93,                                  !- Latitude {deg}
  -78.73,                                 !- Longitude {deg}
  -5,                                     !- Time Zone {hr}
  215,                                    !- Elevation {m}
  /Users/nlong/working/dissertation-analysis/dc/analysis/esbe/activity_3/coincident/weather/USA_NY_Buffalo-Greater.Buffalo.Intl.AP.725280_TMY3.epw, !- Url
  ;                                       !- Checksum

OS:Site:WaterMainsTemperature,
  {3d36ca3e-1328-4a08-aec7-6c7d14433179}, !- Handle
  Correlation,                            !- Calculation Method
  ,                                       !- Temperature Schedule Name
  8.96666666666667,                       !- Annual Average Outdoor Air Temperature {C}
  26.2;                                   !- Maximum Difference In Monthly Average Outdoor Air Temperatures {deltaC}

OS:SizingPeriod:DesignDay,
  {a69a8dc4-ab84-4b96-9f7c-7e3bf182cfbd}, !- Handle
  Buffalo Niagara Intl Ap Ann Clg .4% Condns DB=>MWB 1, !- Name
  30.3,                                   !- Maximum Dry-Bulb Temperature {C}
  9.3,                                    !- Daily Dry-Bulb Temperature Range {deltaC}
  98769,                                  !- Barometric Pressure {Pa}
  5.7,                                    !- Wind Speed {m/s}
  240,                                    !- Wind Direction {deg}
  ,                                       !- Sky Clearness
  No,                                     !- Rain Indicator
  No,                                     !- Snow Indicator
  21,                                     !- Day of Month
  7,                                      !- Month
  SummerDesignDay,                        !- Day Type
  No,                                     !- Daylight Saving Time Indicator
  Wetbulb,                                !- Humidity Condition Type
  ,                                       !- Humidity Condition Day Schedule Name
  21.8,                                   !- Wetbulb or DewPoint at Maximum Dry-Bulb {C}
  ,                                       !- Humidity Ratio at Maximum Dry-Bulb {kgWater/kgDryAir}
  ,                                       !- Enthalpy at Maximum Dry-Bulb {J/kg}
  DefaultMultipliers,                     !- Dry-Bulb Temperature Range Modifier Type
  ,                                       !- Dry-Bulb Temperature Range Modifier Day Schedule Name
  ASHRAETau,                              !- Solar Model Indicator
  ,                                       !- Beam Solar Day Schedule Name
  ,                                       !- Diffuse Solar Day Schedule Name
  0.462,                                  !- ASHRAE Clear Sky Optical Depth for Beam Irradiance {dimensionless}
  2.001;                                  !- ASHRAE Clear Sky Optical Depth for Diffuse Irradiance {dimensionless}

OS:SizingPeriod:DesignDay,
  {cf26556d-3ac8-4192-a026-f2df2f9dce51}, !- Handle
  Buffalo Niagara Intl Ap Ann Clg .4% Condns WB=>MDB 1, !- Name
  27.8,                                   !- Maximum Dry-Bulb Temperature {C}
  9.3,                                    !- Daily Dry-Bulb Temperature Range {deltaC}
  98769,                                  !- Barometric Pressure {Pa}
  5.7,                                    !- Wind Speed {m/s}
  240,                                    !- Wind Direction {deg}
  ,                                       !- Sky Clearness
  No,                                     !- Rain Indicator
  No,                                     !- Snow Indicator
  21,                                     !- Day of Month
  7,                                      !- Month
  SummerDesignDay,                        !- Day Type
  No,                                     !- Daylight Saving Time Indicator
  Wetbulb,                                !- Humidity Condition Type
  ,                                       !- Humidity Condition Day Schedule Name
  23.8,                                   !- Wetbulb or DewPoint at Maximum Dry-Bulb {C}
  ,                                       !- Humidity Ratio at Maximum Dry-Bulb {kgWater/kgDryAir}
  ,                                       !- Enthalpy at Maximum Dry-Bulb {J/kg}
  DefaultMultipliers,                     !- Dry-Bulb Temperature Range Modifier Type
  ,                                       !- Dry-Bulb Temperature Range Modifier Day Schedule Name
  ASHRAETau,                              !- Solar Model Indicator
  ,                                       !- Beam Solar Day Schedule Name
  ,                                       !- Diffuse Solar Day Schedule Name
  0.462,                                  !- ASHRAE Clear Sky Optical Depth for Beam Irradiance {dimensionless}
  2.001;                                  !- ASHRAE Clear Sky Optical Depth for Diffuse Irradiance {dimensionless}

OS:SizingPeriod:DesignDay,
  {361da4e2-bc7b-4e0d-b479-6dc675027a9c}, !- Handle
  Buffalo Niagara Intl Ap Ann Htg 99.6% Condns DB 1, !- Name
  -16.3,                                  !- Maximum Dry-Bulb Temperature {C}
  0,                                      !- Daily Dry-Bulb Temperature Range {deltaC}
  98769,                                  !- Barometric Pressure {Pa}
  5.1,                                    !- Wind Speed {m/s}
  270,                                    !- Wind Direction {deg}
  0,                                      !- Sky Clearness
  No,                                     !- Rain Indicator
  No,                                     !- Snow Indicator
  21,                                     !- Day of Month
  1,                                      !- Month
  WinterDesignDay,                        !- Day Type
  No,                                     !- Daylight Saving Time Indicator
  Wetbulb,                                !- Humidity Condition Type
  ,                                       !- Humidity Condition Day Schedule Name
  -16.3,                                  !- Wetbulb or DewPoint at Maximum Dry-Bulb {C}
  ,                                       !- Humidity Ratio at Maximum Dry-Bulb {kgWater/kgDryAir}
  ,                                       !- Enthalpy at Maximum Dry-Bulb {J/kg}
  DefaultMultipliers,                     !- Dry-Bulb Temperature Range Modifier Type
  ,                                       !- Dry-Bulb Temperature Range Modifier Day Schedule Name
  ASHRAEClearSky;                         !- Solar Model Indicator

OS:ClimateZones,
  {97027094-bfdf-41c3-9c98-ed6a5064a45c}, !- Handle
  ASHRAE,                                 !- Climate Zone Institution Name 1
  ANSI/ASHRAE Standard 169,               !- Climate Zone Document Name 1
  2006,                                   !- Climate Zone Document Year 1
  6A;                                     !- Climate Zone Value 1

OS:Rendering:Color,
  {b266305e-8609-4f67-b825-ed8f930ce7bc}, !- Handle
  FullServiceRestaurant Kitchen,          !- Name
  78,                                     !- Rendering Red Value
  222,                                    !- Rendering Green Value
  133;                                    !- Rendering Blue Value

OS:Rendering:Color,
  {530c028e-d534-4221-a6f1-57b2fe02a561}, !- Handle
  FullServiceRestaurant Dining,           !- Name
  31,                                     !- Rendering Red Value
  169,                                    !- Rendering Green Value
  34;                                     !- Rendering Blue Value

OS:RunPeriodControl:DaylightSavingTime,
  {8baa0063-c46c-4a1f-804e-91d408925535}, !- Handle
  2nd Sunday in March,                    !- Start Date
  1st Sunday in November;                 !- End Date

OS:People:Definition,
  {cce4e1f6-edd4-4396-8331-b740625be1f7}, !- Handle
  FullServiceRestaurant Dining People Definition, !- Name
  People/Area,                            !- Number of People Calculation Method
  ,                                       !- Number of People {people}
  0.753473729169681,                      !- People per Space Floor Area {person/m2}
  ,                                       !- Space Floor Area per Person {m2/person}
  0.3,                                    !- Fraction Radiant
  ,                                       !- Sensible Heat Fraction
  ,                                       !- Carbon Dioxide Generation Rate {m3/s-W}
  Yes,                                    !- Enable ASHRAE 55 Comfort Warnings
  ZoneAveraged,                           !- Mean Radiant Temperature Calculation Type
  Fanger;                                 !- Thermal Comfort Model Type 1

OS:Schedule:Ruleset,
  {725d131b-6724-495a-8933-a8c1d02cd45f}, !- Handle
  Clothing Schedule,                      !- Name
  {985597d8-be0e-4c5f-aaf6-339a467485d3}, !- Schedule Type Limits Name
  {da897a29-304f-463f-af62-868a5b4eafa7}; !- Default Day Schedule Name

OS:Schedule:Day,
  {da897a29-304f-463f-af62-868a5b4eafa7}, !- Handle
  Clothing Schedule Default Winter Clothes, !- Name
  {985597d8-be0e-4c5f-aaf6-339a467485d3}, !- Schedule Type Limits Name
  ,                                       !- Interpolate to Timestep
  24,                                     !- Hour 1
  0,                                      !- Minute 1
  1;                                      !- Value Until Time 1

OS:Schedule:Rule,
  {6a6841ed-3407-4836-a6d7-6c17219032e4}, !- Handle
  Schedule Rule 1,                        !- Name
  {725d131b-6724-495a-8933-a8c1d02cd45f}, !- Schedule Ruleset Name
  0,                                      !- Rule Order
  {fb440a9c-7bbc-41ca-8c30-e61396559406}, !- Day Schedule Name
  ,                                       !- Apply Sunday
  ,                                       !- Apply Monday
  ,                                       !- Apply Tuesday
  ,                                       !- Apply Wednesday
  ,                                       !- Apply Thursday
  ,                                       !- Apply Friday
  ,                                       !- Apply Saturday
  DateRange,                              !- Date Specification Type
  5,                                      !- Start Month
  1,                                      !- Start Day
  9,                                      !- End Month
  30;                                     !- End Day

OS:Schedule:Day,
  {fb440a9c-7bbc-41ca-8c30-e61396559406}, !- Handle
  Clothing Schedule Summer Clothes,       !- Name
  {985597d8-be0e-4c5f-aaf6-339a467485d3}, !- Schedule Type Limits Name
  ,                                       !- Interpolate to Timestep
  24,                                     !- Hour 1
  0,                                      !- Minute 1
  0.5;                                    !- Value Until Time 1

OS:ScheduleTypeLimits,
  {985597d8-be0e-4c5f-aaf6-339a467485d3}, !- Handle
  ClothingInsulation,                     !- Name
  0,                                      !- Lower Limit Value
  ,                                       !- Upper Limit Value
  Continuous,                             !- Numeric Type
  ClothingInsulation;                     !- Unit Type

OS:Schedule:Ruleset,
  {01682372-c7db-41ec-8fce-a2ebfd932f69}, !- Handle
  Air Velocity Schedule,                  !- Name
  {3bf55e0e-a642-4ae5-9f53-f8698e1c32f7}, !- Schedule Type Limits Name
  {c2d6edc9-f445-4c25-ba85-a9ca3cf3fae9}; !- Default Day Schedule Name

OS:Schedule:Day,
  {c2d6edc9-f445-4c25-ba85-a9ca3cf3fae9}, !- Handle
  Air Velocity Schedule Default,          !- Name
  {3bf55e0e-a642-4ae5-9f53-f8698e1c32f7}, !- Schedule Type Limits Name
  ,                                       !- Interpolate to Timestep
  24,                                     !- Hour 1
  0,                                      !- Minute 1
  0.2;                                    !- Value Until Time 1

OS:ScheduleTypeLimits,
  {3bf55e0e-a642-4ae5-9f53-f8698e1c32f7}, !- Handle
  Velocity,                               !- Name
  0,                                      !- Lower Limit Value
  ,                                       !- Upper Limit Value
  Continuous,                             !- Numeric Type
  Velocity;                               !- Unit Type

OS:Schedule:Ruleset,
  {7e969b22-6a19-45ff-a1fb-0bba2763216e}, !- Handle
  Work Efficiency Schedule,               !- Name
  {6de3890f-542c-4d53-8bce-eb647323fa5e}, !- Schedule Type Limits Name
  {ffecb6e6-3a52-4260-a833-42c2afe57880}; !- Default Day Schedule Name

OS:Schedule:Day,
  {ffecb6e6-3a52-4260-a833-42c2afe57880}, !- Handle
  Work Efficiency Schedule Default,       !- Name
  {6de3890f-542c-4d53-8bce-eb647323fa5e}, !- Schedule Type Limits Name
  ,                                       !- Interpolate to Timestep
  24,                                     !- Hour 1
  0,                                      !- Minute 1
  0;                                      !- Value Until Time 1

OS:ScheduleTypeLimits,
  {6de3890f-542c-4d53-8bce-eb647323fa5e}, !- Handle
  Fractional,                             !- Name
  0,                                      !- Lower Limit Value
  1,                                      !- Upper Limit Value
  Continuous;                             !- Numeric Type

OS:Lights:Definition,
  {877f1456-31c0-4bac-bee5-16365d078889}, !- Handle
  FullServiceRestaurant Dining Lights Definition, !- Name
  Watts/Area,                             !- Design Level Calculation Method
  ,                                       !- Lighting Level {W}
  9.57988027087165,                       !- Watts per Space Floor Area {W/m2}
  ,                                       !- Watts per Person {W/person}
  0.7,                                    !- Fraction Radiant
  0.2,                                    !- Fraction Visible
  0;                                      !- Return Air Fraction

OS:AdditionalProperties,
  {4b0ce4d0-dc10-4ead-ac5d-524a9306a625}, !- Handle
  {877f1456-31c0-4bac-bee5-16365d078889}, !- Object Name
  lpd_fraction_linear_fluorescent,        !- Feature Name 1
  Double,                                 !- Feature Data Type 1
  1;                                      !- Feature Value 1

OS:ElectricEquipment:Definition,
  {6eb03ffd-68fb-4d4b-91ef-c4ef448f3454}, !- Handle
  FullServiceRestaurant Dining Elec Equip Definition, !- Name
  Watts/Area,                             !- Design Level Calculation Method
  ,                                       !- Design Level {W}
  64.927907633593,                        !- Watts per Space Floor Area {W/m2}
  ,                                       !- Watts per Person {W/person}
  0.25,                                   !- Fraction Latent
  0.3,                                    !- Fraction Radiant
  0;                                      !- Fraction Lost

OS:DesignSpecification:OutdoorAir,
  {15f68914-bf28-4614-b692-5ceecb08205c}, !- Handle
  FullServiceRestaurant Dining Ventilation, !- Name
  Sum,                                    !- Outdoor Air Method
  0.003539605824,                         !- Outdoor Air Flow per Person {m3/s-person}
  0.0009144,                              !- Outdoor Air Flow per Floor Area {m3/s-m2}
  ,                                       !- Outdoor Air Flow Rate {m3/s}
  ,                                       !- Outdoor Air Flow Air Changes per Hour {1/hr}
  ;                                       !- Outdoor Air Flow Rate Fraction Schedule Name

OS:DefaultScheduleSet,
  {b2cc52a2-6fcd-4506-979b-0e4bc7f29a93}, !- Handle
  FullServiceRestaurant Dining Schedule Set, !- Name
  ,                                       !- Hours of Operation Schedule Name
  {bba74e5c-f80a-46cd-b691-44490aa01673}, !- Number of People Schedule Name
  {02af3a3c-1653-41a7-b3a3-2203a329a19d}, !- People Activity Level Schedule Name
  {d0e0eacf-db26-49cb-b1ab-f069844a8eb6}, !- Lighting Schedule Name
  {04af8eb7-49db-4299-8f22-8faa07a12747}, !- Electric Equipment Schedule Name
  ,                                       !- Gas Equipment Schedule Name
  ,                                       !- Hot Water Equipment Schedule Name
  {2c3b1078-9d19-40da-9f30-6fb2a5cca645}, !- Infiltration Schedule Name
  ,                                       !- Steam Equipment Schedule Name
  ;                                       !- Other Equipment Schedule Name

OS:Schedule:Ruleset,
  {bba74e5c-f80a-46cd-b691-44490aa01673}, !- Handle
  RestaurantSitDown BLDG_OCC_SCH,         !- Name
  {6de3890f-542c-4d53-8bce-eb647323fa5e}, !- Schedule Type Limits Name
  {0d0b1b35-8535-42d8-a59d-f815b35056c0}, !- Default Day Schedule Name
  {305694a5-48f8-4f9a-a389-45c04d614cfb}, !- Summer Design Day Schedule Name
  {ac5c8167-5b55-4de5-83f3-cd8f9fb25d46}; !- Winter Design Day Schedule Name

OS:Schedule:Day,
  {0d0b1b35-8535-42d8-a59d-f815b35056c0}, !- Handle
  RestaurantSitDown BLDG_OCC_SCH Default, !- Name
  {6de3890f-542c-4d53-8bce-eb647323fa5e}, !- Schedule Type Limits Name
  Yes,                                    !- Interpolate to Timestep
  8,                                      !- Hour 1
  30,                                     !- Minute 1
  0,                                      !- Value Until Time 1
  9,                                      !- Hour 2
  30,                                     !- Minute 2
  0.05,                                   !- Value Until Time 2
  10,                                     !- Hour 3
  30,                                     !- Minute 3
  0.5,                                    !- Value Until Time 3
  11,                                     !- Hour 4
  0,                                      !- Minute 4
  0.5,                                    !- Value Until Time 4
  12,                                     !- Hour 5
  0,                                      !- Minute 5
  0.35,                                   !- Value Until Time 5
  13,                                     !- Hour 6
  0,                                      !- Minute 6
  0.2,                                    !- Value Until Time 6
  14,                                     !- Hour 7
  0,                                      !- Minute 7
  0.25,                                   !- Value Until Time 7
  15,                                     !- Hour 8
  0,                                      !- Minute 8
  0.35,                                   !- Value Until Time 8
  16,                                     !- Hour 9
  0,                                      !- Minute 9
  0.55,                                   !- Value Until Time 9
  16,                                     !- Hour 10
  30,                                     !- Minute 10
  0.05,                                   !- Value Until Time 10
  17,                                     !- Hour 11
  30,                                     !- Minute 11
  0,                                      !- Value Until Time 11
  24,                                     !- Hour 12
  0,                                      !- Minute 12
  0;                                      !- Value Until Time 12

OS:Schedule:Rule,
  {ccac2e77-98f0-4475-b480-007895bccef4}, !- Handle
  Schedule Rule 2,                        !- Name
  {bba74e5c-f80a-46cd-b691-44490aa01673}, !- Schedule Ruleset Name
  1,                                      !- Rule Order
  {7c277b71-f675-4a06-8940-1526061bf266}, !- Day Schedule Name
  ,                                       !- Apply Sunday
  ,                                       !- Apply Monday
  ,                                       !- Apply Tuesday
  ,                                       !- Apply Wednesday
  ,                                       !- Apply Thursday
  ,                                       !- Apply Friday
  Yes,                                    !- Apply Saturday
  DateRange,                              !- Date Specification Type
  1,                                      !- Start Month
  1,                                      !- Start Day
  12,                                     !- End Month
  31;                                     !- End Day

OS:Schedule:Day,
  {7c277b71-f675-4a06-8940-1526061bf266}, !- Handle
  RestaurantSitDown BLDG_OCC_SCH Sat Day, !- Name
  {6de3890f-542c-4d53-8bce-eb647323fa5e}, !- Schedule Type Limits Name
  Yes,                                    !- Interpolate to Timestep
  8,                                      !- Hour 1
  30,                                     !- Minute 1
  0,                                      !- Value Until Time 1
  9,                                      !- Hour 2
  30,                                     !- Minute 2
  0.05,                                   !- Value Until Time 2
  10,                                     !- Hour 3
  30,                                     !- Minute 3
  0.5,                                    !- Value Until Time 3
  11,                                     !- Hour 4
  30,                                     !- Minute 4
  0.5,                                    !- Value Until Time 4
  12,                                     !- Hour 5
  30,                                     !- Minute 5
  0.7,                                    !- Value Until Time 5
  13,                                     !- Hour 6
  0,                                      !- Minute 6
  0.3,                                    !- Value Until Time 6
  15,                                     !- Hour 7
  0,                                      !- Minute 7
  0.3,                                    !- Value Until Time 7
  16,                                     !- Hour 8
  0,                                      !- Minute 8
  0.7,                                    !- Value Until Time 8
  16,                                     !- Hour 9
  30,                                     !- Minute 9
  0.05,                                   !- Value Until Time 9
  17,                                     !- Hour 10
  30,                                     !- Minute 10
  0,                                      !- Value Until Time 10
  24,                                     !- Hour 11
  0,                                      !- Minute 11
  0;                                      !- Value Until Time 11

OS:Schedule:Day,
  {305694a5-48f8-4f9a-a389-45c04d614cfb}, !- Handle
  RestaurantSitDown BLDG_OCC_SCH Summer Design Day, !- Name
  {6de3890f-542c-4d53-8bce-eb647323fa5e}, !- Schedule Type Limits Name
  ,                                       !- Interpolate to Timestep
  24,                                     !- Hour 1
  0,                                      !- Minute 1
  1;                                      !- Value Until Time 1

OS:Schedule:Rule,
  {1b6a3062-bcf5-4397-83e2-004f54bdb0cb}, !- Handle
  Schedule Rule 3,                        !- Name
  {bba74e5c-f80a-46cd-b691-44490aa01673}, !- Schedule Ruleset Name
  0,                                      !- Rule Order
  {353ce0df-b720-441b-83b9-cc7706227954}, !- Day Schedule Name
  ,                                       !- Apply Sunday
  Yes,                                    !- Apply Monday
  Yes,                                    !- Apply Tuesday
  Yes,                                    !- Apply Wednesday
  Yes,                                    !- Apply Thursday
  Yes,                                    !- Apply Friday
  ,                                       !- Apply Saturday
  DateRange,                              !- Date Specification Type
  1,                                      !- Start Month
  1,                                      !- Start Day
  12,                                     !- End Month
  31;                                     !- End Day

OS:Schedule:Day,
  {353ce0df-b720-441b-83b9-cc7706227954}, !- Handle
  RestaurantSitDown BLDG_OCC_SCH Wkdy Day, !- Name
  {6de3890f-542c-4d53-8bce-eb647323fa5e}, !- Schedule Type Limits Name
  Yes,                                    !- Interpolate to Timestep
  7,                                      !- Hour 1
  30,                                     !- Minute 1
  0,                                      !- Value Until Time 1
  8,                                      !- Hour 2
  30,                                     !- Minute 2
  0.05,                                   !- Value Until Time 2
  9,                                      !- Hour 3
  30,                                     !- Minute 3
  0.1,                                    !- Value Until Time 3
  10,                                     !- Hour 4
  30,                                     !- Minute 4
  0.4,                                    !- Value Until Time 4
  11,                                     !- Hour 5
  30,                                     !- Minute 5
  0.6,                                    !- Value Until Time 5