
OS:Version,
  {4b990ddc-4f44-4d7c-916c-4150a522377d}, !- Handle
  3.5.1;                                  !- Version Identifier

OS:Facility,
  {6b4113a3-7a2b-45a7-aae6-b52477d3dd11}; !- Handle

OS:Site,
  {829ec5f3-3dca-4452-9beb-40e64d02334f}, !- Handle
  Buffalo Niagara Intl Ap_NY_USA,         !- Name
  42.8186857985637,                       !- Latitude {deg}
  -78.8518673839952,                      !- Longitude {deg}
  -5,                                     !- Time Zone {hr}
  53.6448,                                !- Elevation {m}
  City;                                   !- Terrain

OS:SimulationControl,
  {3b07fc96-e975-4059-b45d-26e40cccbcc6}, !- Handle
  ,                                       !- Do Zone Sizing Calculation
  ,                                       !- Do System Sizing Calculation
  ,                                       !- Do Plant Sizing Calculation
  No,                                     !- Run Simulation for Sizing Periods
  Yes,                                    !- Run Simulation for Weather File Run Periods
  ,                                       !- Loads Convergence Tolerance Value {W}
  ,                                       !- Temperature Convergence Tolerance Value {deltaC}
  ,                                       !- Solar Distribution
  ,                                       !- Maximum Number of Warmup Days
  ,                                       !- Minimum Number of Warmup Days
  No,                                     !- Do HVAC Sizing Simulation for Sizing Periods
  1;                                      !- Maximum Number of HVAC Sizing Simulation Passes

OS:Sizing:Parameters,
  {5ea5fc23-3b2b-4b20-b385-600ffcaa7073}, !- Handle
  1.25,                                   !- Heating Sizing Factor
  1.15;                                   !- Cooling Sizing Factor

OS:Timestep,
  {c89eafbc-f67e-4be9-adaa-54c6e5090f18}, !- Handle
  1;                                      !- Number of Timesteps per Hour

OS:ShadowCalculation,
  {67ee3f9f-1ccd-4674-96f6-39ecc7592b6b}, !- Handle
  PolygonClipping,                        !- Shading Calculation Method
  ,                                       !- Shading Calculation Update Frequency Method
  20,                                     !- Shading Calculation Update Frequency
  15000,                                  !- Maximum Figures in Shadow Overlap Calculations
  ,                                       !- Polygon Clipping Algorithm
  512,                                    !- Pixel Counting Resolution
  ,                                       !- Sky Diffuse Modeling Algorithm
  No,                                     !- Output External Shading Calculation Results
  No,                                     !- Disable Self-Shading Within Shading Zone Groups
  No;                                     !- Disable Self-Shading From Shading Zone Groups to Other Zones

OS:HeatBalanceAlgorithm,
  {3e9012a9-1861-4798-b254-0141d9a911a9}, !- Handle
  ConductionTransferFunction,             !- Algorithm
  200;                                    !- Surface Temperature Upper Limit {C}

OS:RunPeriod,
  {fd29f2d3-3722-4e3e-a31c-6527040f3da6}, !- Handle
  Run Period 1,                           !- Name
  1,                                      !- Begin Month
  1,                                      !- Begin Day of Month
  12,                                     !- End Month
  31,                                     !- End Day of Month
  ,                                       !- Use Weather File Holidays and Special Days
  ,                                       !- Use Weather File Daylight Saving Period
  ,                                       !- Apply Weekend Holiday Rule
  ,                                       !- Use Weather File Rain Indicators
  ,                                       !- Use Weather File Snow Indicators
  ;                                       !- Number of Times Runperiod to be Repeated

OS:LifeCycleCost:Parameters,
  {404a90c7-025d-4556-a714-d580daf3b923}, !- Handle
  ,                                       !- Analysis Type
  ,                                       !- Discounting Convention
  ,                                       !- Inflation Approach
  ,                                       !- Real Discount Rate
  ,                                       !- Nominal Discount Rate
  ,                                       !- Inflation
  ,                                       !- Base Date Month
  ,                                       !- Base Date Year
  ,                                       !- Service Date Month
  ,                                       !- Service Date Year
  ;                                       !- Length of Study Period in Years

OS:YearDescription,
  {d4a813fc-3b91-49d7-9e3f-f8cc7b539b12}, !- Handle
  2017,                                   !- Calendar Year
  ,                                       !- Day of Week for Start Day
  ;                                       !- Is Leap Year

OS:WeatherFile,
  {12ee3a26-b3bb-4673-8f1d-1528dcc38cd7}, !- Handle
  Buffalo Niagara Intl Ap,                !- City
  NY,                                     !- State Province Region
  USA,                                    !- Country
  TMY3,                                   !- Data Source
  725280,                                 !- WMO Number
  42.93,                                  !- Latitude {deg}
  -78.73,                                 !- Longitude {deg}
  -5,                                     !- Time Zone {hr}
  215,                                    !- Elevation {m}
  /Users/nlong/working/dissertation-analysis/dc/analysis/esbe/activity_3/coincident/weather/USA_NY_Buffalo-Greater.Buffalo.Intl.AP.725280_TMY3.epw, !- Url
  ;                                       !- Checksum

OS:Site:WaterMainsTemperature,
  {3ca50c32-892b-46b8-ab18-8f87bca73d3c}, !- Handle
  Correlation,                            !- Calculation Method
  ,                                       !- Temperature Schedule Name
  8.96666666666667,                       !- Annual Average Outdoor Air Temperature {C}
  26.2;                                   !- Maximum Difference In Monthly Average Outdoor Air Temperatures {deltaC}

OS:SizingPeriod:DesignDay,
  {ca3ce97c-14ca-4012-b68e-6939d626933d}, !- Handle
  Buffalo Niagara Intl Ap Ann Clg .4% Condns DB=>MWB 1, !- Name
  30.3,                                   !- Maximum Dry-Bulb Temperature {C}
  9.3,                                    !- Daily Dry-Bulb Temperature Range {deltaC}
  98769,                                  !- Barometric Pressure {Pa}
  5.7,                                    !- Wind Speed {m/s}
  240,                                    !- Wind Direction {deg}
  ,                                       !- Sky Clearness
  No,                                     !- Rain Indicator
  No,                                     !- Snow Indicator
  21,                                     !- Day of Month
  7,                                      !- Month
  SummerDesignDay,                        !- Day Type
  No,                                     !- Daylight Saving Time Indicator
  Wetbulb,                                !- Humidity Condition Type
  ,                                       !- Humidity Condition Day Schedule Name
  21.8,                                   !- Wetbulb or DewPoint at Maximum Dry-Bulb {C}
  ,                                       !- Humidity Ratio at Maximum Dry-Bulb {kgWater/kgDryAir}
  ,                                       !- Enthalpy at Maximum Dry-Bulb {J/kg}
  DefaultMultipliers,                     !- Dry-Bulb Temperature Range Modifier Type
  ,                                       !- Dry-Bulb Temperature Range Modifier Day Schedule Name
  ASHRAETau,                              !- Solar Model Indicator
  ,                                       !- Beam Solar Day Schedule Name
  ,                                       !- Diffuse Solar Day Schedule Name
  0.462,                                  !- ASHRAE Clear Sky Optical Depth for Beam Irradiance {dimensionless}
  2.001;                                  !- ASHRAE Clear Sky Optical Depth for Diffuse Irradiance {dimensionless}

OS:SizingPeriod:DesignDay,
  {f5435770-72d4-4fae-876a-cd8ff6e29942}, !- Handle
  Buffalo Niagara Intl Ap Ann Clg .4% Condns WB=>MDB 1, !- Name
  27.8,                                   !- Maximum Dry-Bulb Temperature {C}
  9.3,                                    !- Daily Dry-Bulb Temperature Range {deltaC}
  98769,                                  !- Barometric Pressure {Pa}
  5.7,                                    !- Wind Speed {m/s}
  240,                                    !- Wind Direction {deg}
  ,                                       !- Sky Clearness
  No,                                     !- Rain Indicator
  No,                                     !- Snow Indicator
  21,                                     !- Day of Month
  7,                                      !- Month
  SummerDesignDay,                        !- Day Type
  No,                                     !- Daylight Saving Time Indicator
  Wetbulb,                                !- Humidity Condition Type
  ,                                       !- Humidity Condition Day Schedule Name
  23.8,                                   !- Wetbulb or DewPoint at Maximum Dry-Bulb {C}
  ,                                       !- Humidity Ratio at Maximum Dry-Bulb {kgWater/kgDryAir}
  ,                                       !- Enthalpy at Maximum Dry-Bulb {J/kg}
  DefaultMultipliers,                     !- Dry-Bulb Temperature Range Modifier Type
  ,                                       !- Dry-Bulb Temperature Range Modifier Day Schedule Name
  ASHRAETau,                              !- Solar Model Indicator
  ,                                       !- Beam Solar Day Schedule Name
  ,                                       !- Diffuse Solar Day Schedule Name
  0.462,                                  !- ASHRAE Clear Sky Optical Depth for Beam Irradiance {dimensionless}
  2.001;                                  !- ASHRAE Clear Sky Optical Depth for Diffuse Irradiance {dimensionless}

OS:SizingPeriod:DesignDay,
  {b378da30-88be-48fc-827d-4ad79b4e2886}, !- Handle
  Buffalo Niagara Intl Ap Ann Htg 99.6% Condns DB 1, !- Name
  -16.3,                                  !- Maximum Dry-Bulb Temperature {C}
  0,                                      !- Daily Dry-Bulb Temperature Range {deltaC}
  98769,                                  !- Barometric Pressure {Pa}
  5.1,                                    !- Wind Speed {m/s}
  270,                                    !- Wind Direction {deg}
  0,                                      !- Sky Clearness
  No,                                     !- Rain Indicator
  No,                                     !- Snow Indicator
  21,                                     !- Day of Month
  1,                                      !- Month
  WinterDesignDay,                        !- Day Type
  No,                                     !- Daylight Saving Time Indicator
  Wetbulb,                                !- Humidity Condition Type
  ,                                       !- Humidity Condition Day Schedule Name
  -16.3,                                  !- Wetbulb or DewPoint at Maximum Dry-Bulb {C}
  ,                                       !- Humidity Ratio at Maximum Dry-Bulb {kgWater/kgDryAir}
  ,                                       !- Enthalpy at Maximum Dry-Bulb {J/kg}
  DefaultMultipliers,                     !- Dry-Bulb Temperature Range Modifier Type
  ,                                       !- Dry-Bulb Temperature Range Modifier Day Schedule Name
  ASHRAEClearSky;                         !- Solar Model Indicator

OS:ClimateZones,
  {90022a8a-f64d-48ad-8010-c1706c4be4d9}, !- Handle
  ASHRAE,                                 !- Climate Zone Institution Name 1
  ANSI/ASHRAE Standard 169,               !- Climate Zone Document Name 1
  2006,                                   !- Climate Zone Document Year 1
  6A;                                     !- Climate Zone Value 1

OS:Rendering:Color,
  {0c6f587c-7f56-4c44-86e6-47647f4811b9}, !- Handle
  FullServiceRestaurant Kitchen,          !- Name
  78,                                     !- Rendering Red Value
  222,                                    !- Rendering Green Value
  133;                                    !- Rendering Blue Value

OS:Rendering:Color,
  {29c198e9-a1dd-4e3b-a645-38fbebe87f8c}, !- Handle
  FullServiceRestaurant Dining,           !- Name
  31,                                     !- Rendering Red Value
  169,                                    !- Rendering Green Value
  34;                                     !- Rendering Blue Value

OS:RunPeriodControl:DaylightSavingTime,
  {3575fde9-f189-4461-99a1-49be2d49f4d0}, !- Handle
  2nd Sunday in March,                    !- Start Date
  1st Sunday in November;                 !- End Date

OS:People:Definition,
  {ef2f03b8-6852-422e-a096-1aac17fe68f6}, !- Handle
  FullServiceRestaurant Dining People Definition, !- Name
  People/Area,                            !- Number of People Calculation Method
  ,                                       !- Number of People {people}
  0.753473729169681,                      !- People per Space Floor Area {person/m2}
  ,                                       !- Space Floor Area per Person {m2/person}
  0.3,                                    !- Fraction Radiant
  ,                                       !- Sensible Heat Fraction
  ,                                       !- Carbon Dioxide Generation Rate {m3/s-W}
  Yes,                                    !- Enable ASHRAE 55 Comfort Warnings
  ZoneAveraged,                           !- Mean Radiant Temperature Calculation Type
  Fanger;                                 !- Thermal Comfort Model Type 1

OS:Schedule:Ruleset,
  {ecd82d5a-5072-4ce1-880f-1450515984b1}, !- Handle
  Clothing Schedule,                      !- Name
  {cf5d10c1-bba6-4c74-8b35-0ea8c42ac459}, !- Schedule Type Limits Name
  {ec1d85f1-dfb1-4c73-a302-bc1a212f436b}; !- Default Day Schedule Name

OS:Schedule:Day,
  {ec1d85f1-dfb1-4c73-a302-bc1a212f436b}, !- Handle
  Clothing Schedule Default Winter Clothes, !- Name
  {cf5d10c1-bba6-4c74-8b35-0ea8c42ac459}, !- Schedule Type Limits Name
  ,                                       !- Interpolate to Timestep
  24,                                     !- Hour 1
  0,                                      !- Minute 1
  1;                                      !- Value Until Time 1

OS:Schedule:Rule,
  {a2d747b8-6ae2-469a-8a09-7be85b02429c}, !- Handle
  Schedule Rule 1,                        !- Name
  {ecd82d5a-5072-4ce1-880f-1450515984b1}, !- Schedule Ruleset Name
  0,                                      !- Rule Order
  {2060c150-a09f-4d7f-b3ec-3b7a6c0fdcad}, !- Day Schedule Name
  ,                                       !- Apply Sunday
  ,                                       !- Apply Monday
  ,                                       !- Apply Tuesday
  ,                                       !- Apply Wednesday
  ,                                       !- Apply Thursday
  ,                                       !- Apply Friday
  ,                                       !- Apply Saturday
  DateRange,                              !- Date Specification Type
  5,                                      !- Start Month
  1,                                      !- Start Day
  9,                                      !- End Month
  30;                                     !- End Day

OS:Schedule:Day,
  {2060c150-a09f-4d7f-b3ec-3b7a6c0fdcad}, !- Handle
  Clothing Schedule Summer Clothes,       !- Name
  {cf5d10c1-bba6-4c74-8b35-0ea8c42ac459}, !- Schedule Type Limits Name
  ,                                       !- Interpolate to Timestep
  24,                                     !- Hour 1
  0,                                      !- Minute 1
  0.5;                                    !- Value Until Time 1

OS:ScheduleTypeLimits,
  {cf5d10c1-bba6-4c74-8b35-0ea8c42ac459}, !- Handle
  ClothingInsulation,                     !- Name
  0,                                      !- Lower Limit Value
  ,                                       !- Upper Limit Value
  Continuous,                             !- Numeric Type
  ClothingInsulation;                     !- Unit Type

OS:Schedule:Ruleset,
  {d6698b8a-db6a-4c71-905f-d285568317eb}, !- Handle
  Air Velocity Schedule,                  !- Name
  {826d2b50-b567-403c-99bd-8a2a6e7af7d4}, !- Schedule Type Limits Name
  {d8c91348-4fdb-4fa9-993a-47353b75de9b}; !- Default Day Schedule Name

OS:Schedule:Day,
  {d8c91348-4fdb-4fa9-993a-47353b75de9b}, !- Handle
  Air Velocity Schedule Default,          !- Name
  {826d2b50-b567-403c-99bd-8a2a6e7af7d4}, !- Schedule Type Limits Name
  ,                                       !- Interpolate to Timestep
  24,                                     !- Hour 1
  0,                                      !- Minute 1
  0.2;                                    !- Value Until Time 1

OS:ScheduleTypeLimits,
  {826d2b50-b567-403c-99bd-8a2a6e7af7d4}, !- Handle
  Velocity,                               !- Name
  0,                                      !- Lower Limit Value
  ,                                       !- Upper Limit Value
  Continuous,                             !- Numeric Type
  Velocity;                               !- Unit Type

OS:Schedule:Ruleset,
  {1d86fed8-d754-4168-aa1f-094f5e5578d8}, !- Handle
  Work Efficiency Schedule,               !- Name
  {1f6f3422-3e10-45cc-8e23-5efb004befe5}, !- Schedule Type Limits Name
  {dcce9333-fea4-418f-9ddf-4c52bfa09dd9}; !- Default Day Schedule Name

OS:Schedule:Day,
  {dcce9333-fea4-418f-9ddf-4c52bfa09dd9}, !- Handle
  Work Efficiency Schedule Default,       !- Name
  {1f6f3422-3e10-45cc-8e23-5efb004befe5}, !- Schedule Type Limits Name
  ,                                       !- Interpolate to Timestep
  24,                                     !- Hour 1
  0,                                      !- Minute 1
  0;                                      !- Value Until Time 1

OS:ScheduleTypeLimits,
  {1f6f3422-3e10-45cc-8e23-5efb004befe5}, !- Handle
  Fractional,                             !- Name
  0,                                      !- Lower Limit Value
  1,                                      !- Upper Limit Value
  Continuous;                             !- Numeric Type

OS:Lights:Definition,
  {cddf35c7-b21e-46fe-85b5-55e5efd84749}, !- Handle
  FullServiceRestaurant Dining Lights Definition, !- Name
  Watts/Area,                             !- Design Level Calculation Method
  ,                                       !- Lighting Level {W}
  9.57988027087165,                       !- Watts per Space Floor Area {W/m2}
  ,                                       !- Watts per Person {W/person}
  0.7,                                    !- Fraction Radiant
  0.2,                                    !- Fraction Visible
  0;                                      !- Return Air Fraction

OS:AdditionalProperties,
  {1bd1e100-eb5b-478d-b8e3-99d50e3bc96f}, !- Handle
  {cddf35c7-b21e-46fe-85b5-55e5efd84749}, !- Object Name
  lpd_fraction_linear_fluorescent,        !- Feature Name 1
  Double,                                 !- Feature Data Type 1
  1;                                      !- Feature Value 1

OS:ElectricEquipment:Definition,
  {e719ace9-933e-401a-9975-bc11fd020e5b}, !- Handle
  FullServiceRestaurant Dining Elec Equip Definition, !- Name
  Watts/Area,                             !- Design Level Calculation Method
  ,                                       !- Design Level {W}
  64.927907633593,                        !- Watts per Space Floor Area {W/m2}
  ,                                       !- Watts per Person {W/person}
  0.25,                                   !- Fraction Latent
  0.3,                                    !- Fraction Radiant
  0;                                      !- Fraction Lost

OS:DesignSpecification:OutdoorAir,
  {c1fa94c6-6ccd-4912-b8c5-b4c8e870cb87}, !- Handle
  FullServiceRestaurant Dining Ventilation, !- Name
  Sum,                                    !- Outdoor Air Method
  0.003539605824,                         !- Outdoor Air Flow per Person {m3/s-person}
  0.0009144,                              !- Outdoor Air Flow per Floor Area {m3/s-m2}
  ,                                       !- Outdoor Air Flow Rate {m3/s}
  ,                                       !- Outdoor Air Flow Air Changes per Hour {1/hr}
  ;                                       !- Outdoor Air Flow Rate Fraction Schedule Name

OS:DefaultScheduleSet,
  {bf95d4c8-dc21-496a-b87a-738f53fbb784}, !- Handle
  FullServiceRestaurant Dining Schedule Set, !- Name
  ,                                       !- Hours of Operation Schedule Name
  {0049f693-dba9-46f5-ac77-2575d39a6554}, !- Number of People Schedule Name
  {cea2f928-f037-4da2-a817-fdff7028b43f}, !- People Activity Level Schedule Name
  {8855fc56-796a-4efa-aa1f-5362ad666d9e}, !- Lighting Schedule Name
  {b24a06d5-adac-41b3-b892-006eccf549bc}, !- Electric Equipment Schedule Name
  ,                                       !- Gas Equipment Schedule Name
  ,                                       !- Hot Water Equipment Schedule Name
  {9b9fc71b-f411-4c24-b541-9ff088027db5}, !- Infiltration Schedule Name
  ,                                       !- Steam Equipment Schedule Name
  ;                                       !- Other Equipment Schedule Name

OS:Schedule:Ruleset,
  {0049f693-dba9-46f5-ac77-2575d39a6554}, !- Handle
  RestaurantSitDown BLDG_OCC_SCH,         !- Name
  {1f6f3422-3e10-45cc-8e23-5efb004befe5}, !- Schedule Type Limits Name
  {2fa7ec73-2760-44b6-a474-5576371ce910}, !- Default Day Schedule Name
  {7104a220-741b-4f4f-a7fb-90fe5715f155}, !- Summer Design Day Schedule Name
  {53c60692-c36d-4869-a44a-9838738ef726}; !- Winter Design Day Schedule Name

OS:Schedule:Day,
  {2fa7ec73-2760-44b6-a474-5576371ce910}, !- Handle
  RestaurantSitDown BLDG_OCC_SCH Default, !- Name
  {1f6f3422-3e10-45cc-8e23-5efb004befe5}, !- Schedule Type Limits Name
  Yes,                                    !- Interpolate to Timestep
  8,                                      !- Hour 1
  30,                                     !- Minute 1
  0,                                      !- Value Until Time 1
  9,                                      !- Hour 2
  30,                                     !- Minute 2
  0.05,                                   !- Value Until Time 2
  10,                                     !- Hour 3
  30,                                     !- Minute 3
  0.5,                                    !- Value Until Time 3
  11,                                     !- Hour 4
  0,                                      !- Minute 4
  0.5,                                    !- Value Until Time 4
  12,                                     !- Hour 5
  0,                                      !- Minute 5
  0.35,                                   !- Value Until Time 5
  13,                                     !- Hour 6
  0,                                      !- Minute 6
  0.2,                                    !- Value Until Time 6
  14,                                     !- Hour 7
  0,                                      !- Minute 7
  0.25,                                   !- Value Until Time 7
  15,                                     !- Hour 8
  0,                                      !- Minute 8
  0.35,                                   !- Value Until Time 8
  16,                                     !- Hour 9
  0,                                      !- Minute 9
  0.55,                                   !- Value Until Time 9
  16,                                     !- Hour 10
  30,                                     !- Minute 10
  0.05,                                   !- Value Until Time 10
  17,                                     !- Hour 11
  30,                                     !- Minute 11
  0,                                      !- Value Until Time 11
  24,                                     !- Hour 12
  0,                                      !- Minute 12
  0;                                      !- Value Until Time 12

OS:Schedule:Rule,
  {71aeddbe-c71a-4f0c-8342-6bb7bdd85d7b}, !- Handle
  Schedule Rule 2,                        !- Name
  {0049f693-dba9-46f5-ac77-2575d39a6554}, !- Schedule Ruleset Name
  1,                                      !- Rule Order
  {41b91d43-b4e9-4ea2-b91b-fce6c1c7acfd}, !- Day Schedule Name
  ,                                       !- Apply Sunday
  ,                                       !- Apply Monday
  ,                                       !- Apply Tuesday
  ,                                       !- Apply Wednesday
  ,                                       !- Apply Thursday
  ,                                       !- Apply Friday
  Yes,                                    !- Apply Saturday
  DateRange,                              !- Date Specification Type
  1,                                      !- Start Month
  1,                                      !- Start Day
  12,                                     !- End Month
  31;                                     !- End Day

OS:Schedule:Day,
  {41b91d43-b4e9-4ea2-b91b-fce6c1c7acfd}, !- Handle
  RestaurantSitDown BLDG_OCC_SCH Sat Day, !- Name
  {1f6f3422-3e10-45cc-8e23-5efb004befe5}, !- Schedule Type Limits Name
  Yes,                                    !- Interpolate to Timestep
  8,                                      !- Hour 1
  30,                                     !- Minute 1
  0,                                      !- Value Until Time 1
  9,                                      !- Hour 2
  30,                                     !- Minute 2
  0.05,                                   !- Value Until Time 2
  10,                                     !- Hour 3
  30,                                     !- Minute 3
  0.5,                                    !- Value Until Time 3
  11,                                     !- Hour 4
  30,                                     !- Minute 4
  0.5,                                    !- Value Until Time 4
  12,                                     !- Hour 5
  30,                                     !- Minute 5
  0.7,                                    !- Value Until Time 5
  13,                                     !- Hour 6
  0,                                      !- Minute 6
  0.3,                                    !- Value Until Time 6
  15,                                     !- Hour 7
  0,                                      !- Minute 7
  0.3,                                    !- Value Until Time 7
  16,                                     !- Hour 8
  0,                                      !- Minute 8
  0.7,                                    !- Value Until Time 8
  16,                                     !- Hour 9
  30,                                     !- Minute 9
  0.05,                                   !- Value Until Time 9
  17,                                     !- Hour 10
  30,                                     !- Minute 10
  0,                                      !- Value Until Time 10
  24,                                     !- Hour 11
  0,                                      !- Minute 11
  0;                                      !- Value Until Time 11

OS:Schedule:Day,
  {7104a220-741b-4f4f-a7fb-90fe5715f155}, !- Handle
  RestaurantSitDown BLDG_OCC_SCH Summer Design Day, !- Name
  {1f6f3422-3e10-45cc-8e23-5efb004befe5}, !- Schedule Type Limits Name
  ,                                       !- Interpolate to Timestep
  24,                                     !- Hour 1
  0,                                      !- Minute 1
  1;                                      !- Value Until Time 1

OS:Schedule:Rule,
  {c96626f7-d237-4e94-a498-40cacfd77456}, !- Handle
  Schedule Rule 3,                        !- Name
  {0049f693-dba9-46f5-ac77-2575d39a6554}, !- Schedule Ruleset Name
  0,                                      !- Rule Order
  {87d1ad08-a6df-4ed2-855b-7d5062db89e3}, !- Day Schedule Name
  ,                                       !- Apply Sunday
  Yes,                                    !- Apply Monday
  Yes,                                    !- Apply Tuesday
  Yes,                                    !- Apply Wednesday
  Yes,                                    !- Apply Thursday
  Yes,                                    !- Apply Friday
  ,                                       !- Apply Saturday
  DateRange,                              !- Date Specification Type
  1,                                      !- Start Month
  1,                                      !- Start Day
  12,                                     !- End Month
  31;                                     !- End Day

OS:Schedule:Day,
  {87d1ad08-a6df-4ed2-855b-7d5062db89e3}, !- Handle
  RestaurantSitDown BLDG_OCC_SCH Wkdy Day, !- Name
  {1f6f3422-3e10-45cc-8e23-5efb004befe5}, !- Schedule Type Limits Name
  Yes,                                    !- Interpolate to Timestep
  7,                                      !- Hour 1
  30,                                     !- Minute 1
  0,                                      !- Value Until Time 1
  8,                                      !- Hour 2
  30,                                     !- Minute 2
  0.05,                                   !- Value Until Time 2
  9,                                      !- Hour 3
  30,                                     !- Minute 3
  0.1,                                    !- Value Until Time 3
  10,                                     !- Hour 4
  30,                                     !- Minute 4
  0.4,                                    !- Value Until Time 4
  11,                                     !- Hour 5
  30,                                     !- Minute 5
  0.6,                                    !- Value Until Time 5