
OS:Version,
  {d9fa9f12-9fa7-456c-a8f6-a76179a3483b}, !- Handle
  3.5.1;                                  !- Version Identifier

OS:Facility,
  {de292b4d-15db-488c-960e-85e243288187}; !- Handle

OS:Site,
  {ef679b12-5dee-430a-bbe9-1aaa1e87ffd1}, !- Handle
  Buffalo Niagara Intl Ap_NY_USA,         !- Name
  42.8213557095427,                       !- Latitude {deg}
  -78.8506347732385,                      !- Longitude {deg}
  -5,                                     !- Time Zone {hr}
  53.6448,                                !- Elevation {m}
  City;                                   !- Terrain

OS:SimulationControl,
  {b5b3baf0-648a-4601-bda1-18e7481db35f}, !- Handle
  ,                                       !- Do Zone Sizing Calculation
  ,                                       !- Do System Sizing Calculation
  ,                                       !- Do Plant Sizing Calculation
  No,                                     !- Run Simulation for Sizing Periods
  Yes,                                    !- Run Simulation for Weather File Run Periods
  ,                                       !- Loads Convergence Tolerance Value {W}
  ,                                       !- Temperature Convergence Tolerance Value {deltaC}
  ,                                       !- Solar Distribution
  ,                                       !- Maximum Number of Warmup Days
  ,                                       !- Minimum Number of Warmup Days
  No,                                     !- Do HVAC Sizing Simulation for Sizing Periods
  1;                                      !- Maximum Number of HVAC Sizing Simulation Passes

OS:Sizing:Parameters,
  {70ff419a-112f-4844-9a1f-483c9385fee9}, !- Handle
  1.25,                                   !- Heating Sizing Factor
  1.15;                                   !- Cooling Sizing Factor

OS:Timestep,
  {b709d2ee-a001-47f1-906b-dc9eb6d11670}, !- Handle
  1;                                      !- Number of Timesteps per Hour

OS:ShadowCalculation,
  {da476d56-e590-4a3c-b65d-681e75526ea5}, !- Handle
  PolygonClipping,                        !- Shading Calculation Method
  ,                                       !- Shading Calculation Update Frequency Method
  20,                                     !- Shading Calculation Update Frequency
  15000,                                  !- Maximum Figures in Shadow Overlap Calculations
  ,                                       !- Polygon Clipping Algorithm
  512,                                    !- Pixel Counting Resolution
  ,                                       !- Sky Diffuse Modeling Algorithm
  No,                                     !- Output External Shading Calculation Results
  No,                                     !- Disable Self-Shading Within Shading Zone Groups
  No;                                     !- Disable Self-Shading From Shading Zone Groups to Other Zones

OS:HeatBalanceAlgorithm,
  {f7cf0f96-5e22-4d8a-8a2a-d41f8db749f4}, !- Handle
  ConductionTransferFunction,             !- Algorithm
  200;                                    !- Surface Temperature Upper Limit {C}

OS:RunPeriod,
  {c63b9d36-21b0-490e-95f6-2872e6561e50}, !- Handle
  Run Period 1,                           !- Name
  1,                                      !- Begin Month
  1,                                      !- Begin Day of Month
  12,                                     !- End Month
  31,                                     !- End Day of Month
  ,                                       !- Use Weather File Holidays and Special Days
  ,                                       !- Use Weather File Daylight Saving Period
  ,                                       !- Apply Weekend Holiday Rule
  ,                                       !- Use Weather File Rain Indicators
  ,                                       !- Use Weather File Snow Indicators
  ;                                       !- Number of Times Runperiod to be Repeated

OS:LifeCycleCost:Parameters,
  {e6101415-8aaa-4d7a-8c08-d32922ee09bd}, !- Handle
  ,                                       !- Analysis Type
  ,                                       !- Discounting Convention
  ,                                       !- Inflation Approach
  ,                                       !- Real Discount Rate
  ,                                       !- Nominal Discount Rate
  ,                                       !- Inflation
  ,                                       !- Base Date Month
  ,                                       !- Base Date Year
  ,                                       !- Service Date Month
  ,                                       !- Service Date Year
  ;                                       !- Length of Study Period in Years

OS:YearDescription,
  {43f1613b-b9dd-4442-81bd-c54259c8c5e8}, !- Handle
  2017,                                   !- Calendar Year
  ,                                       !- Day of Week for Start Day
  ;                                       !- Is Leap Year

OS:WeatherFile,
  {f41c8d97-6479-4027-b69a-11f60544b414}, !- Handle
  Buffalo Niagara Intl Ap,                !- City
  NY,                                     !- State Province Region
  USA,                                    !- Country
  TMY3,                                   !- Data Source
  725280,                                 !- WMO Number
  42.93,                                  !- Latitude {deg}
  -78.73,                                 !- Longitude {deg}
  -5,                                     !- Time Zone {hr}
  215,                                    !- Elevation {m}
  /Users/nlong/working/dissertation-analysis/dc/analysis/esbe/activity_3/coincident/weather/USA_NY_Buffalo-Greater.Buffalo.Intl.AP.725280_TMY3.epw, !- Url
  ;                                       !- Checksum

OS:Site:WaterMainsTemperature,
  {4b0906fe-3e80-47fe-add7-58d293fbaa55}, !- Handle
  Correlation,                            !- Calculation Method
  ,                                       !- Temperature Schedule Name
  8.96666666666667,                       !- Annual Average Outdoor Air Temperature {C}
  26.2;                                   !- Maximum Difference In Monthly Average Outdoor Air Temperatures {deltaC}

OS:SizingPeriod:DesignDay,
  {cdc06380-718a-4a64-b807-8653875bec94}, !- Handle
  Buffalo Niagara Intl Ap Ann Clg .4% Condns DB=>MWB 1, !- Name
  30.3,                                   !- Maximum Dry-Bulb Temperature {C}
  9.3,                                    !- Daily Dry-Bulb Temperature Range {deltaC}
  98769,                                  !- Barometric Pressure {Pa}
  5.7,                                    !- Wind Speed {m/s}
  240,                                    !- Wind Direction {deg}
  ,                                       !- Sky Clearness
  No,                                     !- Rain Indicator
  No,                                     !- Snow Indicator
  21,                                     !- Day of Month
  7,                                      !- Month
  SummerDesignDay,                        !- Day Type
  No,                                     !- Daylight Saving Time Indicator
  Wetbulb,                                !- Humidity Condition Type
  ,                                       !- Humidity Condition Day Schedule Name
  21.8,                                   !- Wetbulb or DewPoint at Maximum Dry-Bulb {C}
  ,                                       !- Humidity Ratio at Maximum Dry-Bulb {kgWater/kgDryAir}
  ,                                       !- Enthalpy at Maximum Dry-Bulb {J/kg}
  DefaultMultipliers,                     !- Dry-Bulb Temperature Range Modifier Type
  ,                                       !- Dry-Bulb Temperature Range Modifier Day Schedule Name
  ASHRAETau,                              !- Solar Model Indicator
  ,                                       !- Beam Solar Day Schedule Name
  ,                                       !- Diffuse Solar Day Schedule Name
  0.462,                                  !- ASHRAE Clear Sky Optical Depth for Beam Irradiance {dimensionless}
  2.001;                                  !- ASHRAE Clear Sky Optical Depth for Diffuse Irradiance {dimensionless}

OS:SizingPeriod:DesignDay,
  {fb2cec2e-147a-41e3-8bbd-5eca137afc10}, !- Handle
  Buffalo Niagara Intl Ap Ann Clg .4% Condns WB=>MDB 1, !- Name
  27.8,                                   !- Maximum Dry-Bulb Temperature {C}
  9.3,                                    !- Daily Dry-Bulb Temperature Range {deltaC}
  98769,                                  !- Barometric Pressure {Pa}
  5.7,                                    !- Wind Speed {m/s}
  240,                                    !- Wind Direction {deg}
  ,                                       !- Sky Clearness
  No,                                     !- Rain Indicator
  No,                                     !- Snow Indicator
  21,                                     !- Day of Month
  7,                                      !- Month
  SummerDesignDay,                        !- Day Type
  No,                                     !- Daylight Saving Time Indicator
  Wetbulb,                                !- Humidity Condition Type
  ,                                       !- Humidity Condition Day Schedule Name
  23.8,                                   !- Wetbulb or DewPoint at Maximum Dry-Bulb {C}
  ,                                       !- Humidity Ratio at Maximum Dry-Bulb {kgWater/kgDryAir}
  ,                                       !- Enthalpy at Maximum Dry-Bulb {J/kg}
  DefaultMultipliers,                     !- Dry-Bulb Temperature Range Modifier Type
  ,                                       !- Dry-Bulb Temperature Range Modifier Day Schedule Name
  ASHRAETau,                              !- Solar Model Indicator
  ,                                       !- Beam Solar Day Schedule Name
  ,                                       !- Diffuse Solar Day Schedule Name
  0.462,                                  !- ASHRAE Clear Sky Optical Depth for Beam Irradiance {dimensionless}
  2.001;                                  !- ASHRAE Clear Sky Optical Depth for Diffuse Irradiance {dimensionless}

OS:SizingPeriod:DesignDay,
  {9ec1ff80-2e60-4aec-9d11-9861213eabfe}, !- Handle
  Buffalo Niagara Intl Ap Ann Htg 99.6% Condns DB 1, !- Name
  -16.3,                                  !- Maximum Dry-Bulb Temperature {C}
  0,                                      !- Daily Dry-Bulb Temperature Range {deltaC}
  98769,                                  !- Barometric Pressure {Pa}
  5.1,                                    !- Wind Speed {m/s}
  270,                                    !- Wind Direction {deg}
  0,                                      !- Sky Clearness
  No,                                     !- Rain Indicator
  No,                                     !- Snow Indicator
  21,                                     !- Day of Month
  1,                                      !- Month
  WinterDesignDay,                        !- Day Type
  No,                                     !- Daylight Saving Time Indicator
  Wetbulb,                                !- Humidity Condition Type
  ,                                       !- Humidity Condition Day Schedule Name
  -16.3,                                  !- Wetbulb or DewPoint at Maximum Dry-Bulb {C}
  ,                                       !- Humidity Ratio at Maximum Dry-Bulb {kgWater/kgDryAir}
  ,                                       !- Enthalpy at Maximum Dry-Bulb {J/kg}
  DefaultMultipliers,                     !- Dry-Bulb Temperature Range Modifier Type
  ,                                       !- Dry-Bulb Temperature Range Modifier Day Schedule Name
  ASHRAEClearSky;                         !- Solar Model Indicator

OS:ClimateZones,
  {fb84df18-aa25-4c5e-ac9b-fe224ee74d2c}, !- Handle
  ASHRAE,                                 !- Climate Zone Institution Name 1
  ANSI/ASHRAE Standard 169,               !- Climate Zone Document Name 1
  2006,                                   !- Climate Zone Document Year 1
  6A;                                     !- Climate Zone Value 1

OS:Rendering:Color,
  {9b238eb7-4155-4013-9175-c5fdc75f60c5}, !- Handle
  LargeHotel Laundry,                     !- Name
  120,                                    !- Rendering Red Value
  149,                                    !- Rendering Green Value
  230;                                    !- Rendering Blue Value

OS:Rendering:Color,
  {58d180db-1785-453c-914d-397e66b09e07}, !- Handle
  LargeHotel Storage,                     !- Name
  120,                                    !- Rendering Red Value
  149,                                    !- Rendering Green Value
  230;                                    !- Rendering Blue Value

OS:Rendering:Color,
  {cb17c671-568e-4162-bdfc-0984351741fb}, !- Handle
  LargeHotel Kitchen,                     !- Name
  78,                                     !- Rendering Red Value
  222,                                    !- Rendering Green Value
  133;                                    !- Rendering Blue Value

OS:Rendering:Color,
  {4088e575-52e8-49dd-8350-6c0a1dc78097}, !- Handle
  LargeHotel Retail,                      !- Name
  171,                                    !- Rendering Red Value
  222,                                    !- Rendering Green Value
  78;                                     !- Rendering Blue Value

OS:Rendering:Color,
  {994174ad-d97b-4a69-8dc4-7e816c999c0e}, !- Handle
  LargeHotel Mechanical,                  !- Name
  41,                                     !- Rendering Red Value
  31,                                     !- Rendering Green Value
  169;                                    !- Rendering Blue Value

OS:Rendering:Color,
  {92d002a9-152e-44ca-8d0a-c3c60095a1a6}, !- Handle
  LargeHotel Cafe,                        !- Name
  31,                                     !- Rendering Red Value
  169,                                    !- Rendering Green Value
  34;                                     !- Rendering Blue Value

OS:Rendering:Color,
  {daaa6347-e8aa-4792-8aa2-0c18b166ffea}, !- Handle
  LargeHotel Banquet,                     !- Name
  230,                                    !- Rendering Red Value
  196,                                    !- Rendering Green Value
  120;                                    !- Rendering Blue Value

OS:Rendering:Color,
  {35c6119d-8491-4519-92ec-e71b87bf5403}, !- Handle
  LargeHotel Lobby,                       !- Name
  230,                                    !- Rendering Red Value
  157,                                    !- Rendering Green Value
  120;                                    !- Rendering Blue Value

OS:Rendering:Color,
  {8aad8e45-5dba-4bc4-a816-3663fd4d1543}, !- Handle
  LargeHotel Corridor,                    !- Name
  169,                                    !- Rendering Red Value
  31,                                     !- Rendering Green Value
  31;                                     !- Rendering Blue Value

OS:Rendering:Color,
  {a9fc0121-5e33-4020-af98-03c386b6d859}, !- Handle
  LargeHotel GuestRoom,                   !- Name
  78,                                     !- Rendering Red Value
  167,                                    !- Rendering Green Value
  222;                                    !- Rendering Blue Value

OS:RunPeriodControl:DaylightSavingTime,
  {37f9d36f-b645-45fa-bfd7-f6e10a224537}, !- Handle
  2nd Sunday in March,                    !- Start Date
  1st Sunday in November;                 !- End Date

OS:People:Definition,
  {9deef81d-898f-4152-a097-17aec1ad7fdc}, !- Handle
  LargeHotel Banquet People Definition,   !- Name
  People/Area,                            !- Number of People Calculation Method
  ,                                       !- Number of People {people}
  0.753473729169681,                      !- People per Space Floor Area {person/m2}
  ,                                       !- Space Floor Area per Person {m2/person}
  0.3,                                    !- Fraction Radiant
  ,                                       !- Sensible Heat Fraction
  ,                                       !- Carbon Dioxide Generation Rate {m3/s-W}
  Yes,                                    !- Enable ASHRAE 55 Comfort Warnings
  ZoneAveraged,                           !- Mean Radiant Temperature Calculation Type
  Fanger;                                 !- Thermal Comfort Model Type 1

OS:Schedule:Ruleset,
  {87d5bdad-b3b1-40d0-bcb1-11f64bf43d94}, !- Handle
  Clothing Schedule,                      !- Name
  {d2a9832f-1a2c-499f-811f-77fdf3268ae5}, !- Schedule Type Limits Name
  {765454d4-95ce-41ca-ac33-785ce89c30ea}; !- Default Day Schedule Name

OS:Schedule:Day,
  {765454d4-95ce-41ca-ac33-785ce89c30ea}, !- Handle
  Clothing Schedule Default Winter Clothes, !- Name
  {d2a9832f-1a2c-499f-811f-77fdf3268ae5}, !- Schedule Type Limits Name
  ,                                       !- Interpolate to Timestep
  24,                                     !- Hour 1
  0,                                      !- Minute 1
  1;                                      !- Value Until Time 1

OS:Schedule:Rule,
  {551d9df6-b75f-4457-b500-78f4a476ee6c}, !- Handle
  Schedule Rule 1,                        !- Name
  {87d5bdad-b3b1-40d0-bcb1-11f64bf43d94}, !- Schedule Ruleset Name
  0,                                      !- Rule Order
  {bb759e5e-ef7a-42f1-8c39-0c5c2628faa4}, !- Day Schedule Name
  ,                                       !- Apply Sunday
  ,                                       !- Apply Monday
  ,                                       !- Apply Tuesday
  ,                                       !- Apply Wednesday
  ,                                       !- Apply Thursday
  ,                                       !- Apply Friday
  ,                                       !- Apply Saturday
  DateRange,                              !- Date Specification Type
  5,                                      !- Start Month
  1,                                      !- Start Day
  9,                                      !- End Month
  30;                                     !- End Day

OS:Schedule:Day,
  {bb759e5e-ef7a-42f1-8c39-0c5c2628faa4}, !- Handle
  Clothing Schedule Summer Clothes,       !- Name
  {d2a9832f-1a2c-499f-811f-77fdf3268ae5}, !- Schedule Type Limits Name
  ,                                       !- Interpolate to Timestep
  24,                                     !- Hour 1
  0,                                      !- Minute 1
  0.5;                                    !- Value Until Time 1

OS:ScheduleTypeLimits,
  {d2a9832f-1a2c-499f-811f-77fdf3268ae5}, !- Handle
  ClothingInsulation,                     !- Name
  0,                                      !- Lower Limit Value
  ,                                       !- Upper Limit Value
  Continuous,                             !- Numeric Type
  ClothingInsulation;                     !- Unit Type

OS:Schedule:Ruleset,
  {73d47807-4d02-4c65-867c-3806d4b324f9}, !- Handle
  Air Velocity Schedule,                  !- Name
  {82e5eac8-06c2-4b19-b9e4-a2951c4c7cd7}, !- Schedule Type Limits Name
  {fba1390d-25cc-4472-9bf4-20f59f6b956e}; !- Default Day Schedule Name

OS:Schedule:Day,
  {fba1390d-25cc-4472-9bf4-20f59f6b956e}, !- Handle
  Air Velocity Schedule Default,          !- Name
  {82e5eac8-06c2-4b19-b9e4-a2951c4c7cd7}, !- Schedule Type Limits Name
  ,                                       !- Interpolate to Timestep
  24,                                     !- Hour 1
  0,                                      !- Minute 1
  0.2;                                    !- Value Until Time 1

OS:ScheduleTypeLimits,
  {82e5eac8-06c2-4b19-b9e4-a2951c4c7cd7}, !- Handle
  Velocity,                               !- Name
  0,                                      !- Lower Limit Value
  ,                                       !- Upper Limit Value
  Continuous,                             !- Numeric Type
  Velocity;                               !- Unit Type

OS:Schedule:Ruleset,
  {06fc7b91-968e-49a6-a270-86c8df1fb7ee}, !- Handle
  Work Efficiency Schedule,               !- Name
  {ab9afcff-ecb2-4fe0-a22a-4abe906ecd49}, !- Schedule Type Limits Name
  {70fa5090-c257-4586-916f-2c452751d408}; !- Default Day Schedule Name

OS:Schedule:Day,
  {70fa5090-c257-4586-916f-2c452751d408}, !- Handle
  Work Efficiency Schedule Default,       !- Name
  {ab9afcff-ecb2-4fe0-a22a-4abe906ecd49}, !- Schedule Type Limits Name
  ,                                       !- Interpolate to Timestep
  24,                                     !- Hour 1
  0,                                      !- Minute 1
  0;                                      !- Value Until Time 1

OS:ScheduleTypeLimits,
  {ab9afcff-ecb2-4fe0-a22a-4abe906ecd49}, !- Handle
  Fractional,                             !- Name
  0,                                      !- Lower Limit Value
  1,                                      !- Upper Limit Value
  Continuous;                             !- Numeric Type

OS:Lights:Definition,
  {ccd18fd2-1096-4087-98a1-522a37503b84}, !- Handle
  LargeHotel Banquet Lights Definition,   !- Name
  Watts/Area,                             !- Design Level Calculation Method
  ,                                       !- Lighting Level {W}
  6.99654177086132,                       !- Watts per Space Floor Area {W/m2}
  ,                                       !- Watts per Person {W/person}
  0.7,                                    !- Fraction Radiant
  0.2,                                    !- Fraction Visible
  0;                                      !- Return Air Fraction

OS:AdditionalProperties,
  {d2fd00eb-1f3f-478a-93a6-eea2d10181bd}, !- Handle
  {ccd18fd2-1096-4087-98a1-522a37503b84}, !- Object Name
  lpd_fraction_linear_fluorescent,        !- Feature Name 1
  Double,                                 !- Feature Data Type 1
  1;                                      !- Feature Value 1

OS:ElectricEquipment:Definition,
  {790930e8-c877-4ff8-99c5-9f0143a5d8d4}, !- Handle
  LargeHotel Banquet Elec Equip Definition, !- Name
  Watts/Area,                             !- Design Level Calculation Method
  ,                                       !- Design Level {W}
  67.823399535688,                        !- Watts per Space Floor Area {W/m2}
  ,                                       !- Watts per Person {W/person}
  0,                                      !- Fraction Latent
  0.5,                                    !- Fraction Radiant
  0;                                      !- Fraction Lost

OS:DesignSpecification:OutdoorAir,
  {b685dbb2-a0ee-415f-856b-54f9463339d7}, !- Handle
  LargeHotel Banquet Ventilation,         !- Name
  Sum,                                    !- Outdoor Air Method
  0.002359737216,                         !- Outdoor Air Flow per Person {m3/s-person}
  0.0003048,                              !- Outdoor Air Flow per Floor Area {m3/s-m2}
  ,                                       !- Outdoor Air Flow Rate {m3/s}
  ,                                       !- Outdoor Air Flow Air Changes per Hour {1/hr}
  ;                                       !- Outdoor Air Flow Rate Fraction Schedule Name

OS:DefaultScheduleSet,
  {7000bfa4-5a7f-4543-b27b-8e7764843439}, !- Handle
  LargeHotel Banquet Schedule Set,        !- Name
  ,                                       !- Hours of Operation Schedule Name
  {079c1622-8665-4e1d-a282-98e1d6e11e03}, !- Number of People Schedule Name
  {702328d9-4a65-4d35-8b40-e167f596f02a}, !- People Activity Level Schedule Name
  {d21fdd2f-2af4-4be5-8771-eaf8235e2370}, !- Lighting Schedule Name
  {dba2b7e8-bd26-4db2-a497-6063d140b2b0}, !- Electric Equipment Schedule Name
  ,                                       !- Gas Equipment Schedule Name
  ,                                       !- Hot Water Equipment Schedule Name
  {79ccba95-14dc-420d-8719-46f99ef37cb7}, !- Infiltration Schedule Name
  ,                                       !- Steam Equipment Schedule Name
  ;                                       !- Other Equipment Schedule Name

OS:Schedule:Ruleset,
  {079c1622-8665-4e1d-a282-98e1d6e11e03}, !- Handle
  HotelLarge BLDG_OCC_SCH,                !- Name
  {ab9afcff-ecb2-4fe0-a22a-4abe906ecd49}, !- Schedule Type Limits Name
  {3c59c6bc-f648-4758-88c4-fa80cb0adbfe}, !- Default Day Schedule Name
  {1888570e-88f5-405b-a6eb-79b0c8e34925}, !- Summer Design Day Schedule Name
  {46971290-904d-4c74-868c-bd784ca2c88a}; !- Winter Design Day Schedule Name

OS:Schedule:Day,
  {3c59c6bc-f648-4758-88c4-fa80cb0adbfe}, !- Handle
  HotelLarge BLDG_OCC_SCH Default,        !- Name
  {ab9afcff-ecb2-4fe0-a22a-4abe906ecd49}, !- Schedule Type Limits Name
  Yes,                                    !- Interpolate to Timestep
  1,                                      !- Hour 1
  0,                                      !- Minute 1
  0.225,                                  !- Value Until Time 1
  2,                                      !- Hour 2
  0,                                      !- Minute 2
  0.216666666666667,                      !- Value Until Time 2
  3,                                      !- Hour 3
  0,                                      !- Minute 3
  0.208333333333333,                      !- Value Until Time 3
  4,                                      !- Hour 4
  0,                                      !- Minute 4
  0.2,                                    !- Value Until Time 4
  5,                                      !- Hour 5
  30,                                     !- Minute 5
  0.2,                                    !- Value Until Time 5
  6,                                      !- Hour 6
  30,                                     !- Minute 6
  0.3,                                    !- Value Until Time 6
  7,                                      !- Hour 7
  30,                                     !- Minute 7
  0.8,                                    !- Value Until Time 7
  8,                                      !- Hour 8
  0,                                      !- Minute 8
  0.4,                                    !- Value Until Time 8
  8,                                      !- Hour 9
  30,                                     !- Minute 9
  0.6,                                    !- Value Until Time 9
  9,                                      !- Hour 10
  30,                                     !- Minute 10
  0.75,                                   !- Value Until Time 10
  10,                                     !- Hour 11
  30,                                     !- Minute 11
  0.7,                                    !- Value Until Time 11
  14,                                     !- Hour 12
  30,                                     !- Minute 12
  0.7,                                    !- Value Until Time 12
  15,                                     !- Hour 13
  30,                                     !- Minute 13
  0.366666666666667,                      !- Value Until Time 13
  16,                                     !- Hour 14
  0,                                      !- Minute 14
  0.3,                                    !- Value Until Time 14
  17,                                     !- Hour 15
  0,                                      !- Minute 15
  0.291666666666667,                      !- Value Until Time 15
  18,                                     !- Hour 16
  0,                                      !- Minute 16
  0.283333333333333,                      !- Value Until Time 16
  19,                                     !- Hour 17
  0,                                      !- Minute 17
  0.275,                                  !- Value Until Time 17
  20,                                     !- Hour 18
  0,                                      !- Minute 18
  0.266666666666667,                      !- Value Until Time 18
  21,                                     !- Hour 19
  0,                                      !- Minute 19
  0.258333333333333,                      !- Value Until Time 19
  22,                                     !- Hour 20
  0,                                      !- Minute 20
  0.25,                                   !- Value Until Time 20
  23,                                     !- Hour 21
  0,                                      !- Minute 21
  0.241666666666667,                      !- Value Until Time 21
  24,                                     !- Hour 22
  0,                                      !- Minute 22
  0.233333333333333;                      !- Value Until Time 22

OS:Schedule:Rule,
  {e86b7f59-c7b4-48cf-85bb-27b30b610e02}, !- Handle
  Schedule Rule 2,                        !- Name
  {079c1622-8665-4e1d-a282-98e1d6e11e03}, !- Schedule Ruleset Name
  1,                                      !- Rule Order
  {231b80f7-97a6-4127-ae6f-29571fb76af2}, !- Day Schedule Name
  ,                                       !- Apply Sunday
  ,                                       !- Apply Monday
  ,                                       !- Apply Tuesday
  ,                                       !- Apply Wednesday
  ,                                       !- Apply Thursday
  ,                                       !- Apply Friday
  Yes,                                    !- Apply Saturday
  DateRange,                              !- Date Specification Type
  1,                                      !- Start Month
  1,                                      !- Start Day
  12,                                     !- End Month
  31;                                     !- End Day

OS:Schedule:Day,
  {231b80f7-97a6-4127-ae6f-29571fb76af2}, !- Handle
  HotelLarge BLDG_OCC_SCH Sat Day,        !- Name
  {ab9afcff-ecb2-4fe0-a22a-4abe906ecd49}, !- Schedule Type Limits Name
  Yes,                                    !- Interpolate to Timestep
  6,                                      !- Hour 1
  30,                                     !- Minute 1
  0.3,                                    !- Value Until Time 1