
OS:Version,
  {6c7747f9-3783-432d-90ca-a2572c8313b7}, !- Handle
  3.5.1;                                  !- Version Identifier

OS:Facility,
  {1ab10727-0c71-48de-9cad-a88890f18991}; !- Handle

OS:Site,
  {cc9685fb-7a64-40ac-bbf8-2bd1f7d0b8a1}, !- Handle
  Buffalo Niagara Intl Ap_NY_USA,         !- Name
  42.8209792627806,                       !- Latitude {deg}
  -78.8518351830283,                      !- Longitude {deg}
  -5,                                     !- Time Zone {hr}
  53.6448,                                !- Elevation {m}
  City;                                   !- Terrain

OS:SimulationControl,
  {bda0daa8-3c9b-4637-8374-83212510b959}, !- Handle
  ,                                       !- Do Zone Sizing Calculation
  ,                                       !- Do System Sizing Calculation
  ,                                       !- Do Plant Sizing Calculation
  No,                                     !- Run Simulation for Sizing Periods
  Yes,                                    !- Run Simulation for Weather File Run Periods
  ,                                       !- Loads Convergence Tolerance Value {W}
  ,                                       !- Temperature Convergence Tolerance Value {deltaC}
  ,                                       !- Solar Distribution
  ,                                       !- Maximum Number of Warmup Days
  ,                                       !- Minimum Number of Warmup Days
  No,                                     !- Do HVAC Sizing Simulation for Sizing Periods
  1;                                      !- Maximum Number of HVAC Sizing Simulation Passes

OS:Sizing:Parameters,
  {827592c8-2e23-418c-bd80-ee9a4771d4ec}, !- Handle
  1.25,                                   !- Heating Sizing Factor
  1.15;                                   !- Cooling Sizing Factor

OS:Timestep,
  {878c76dc-4b64-4038-9c9c-6f72d8a3f160}, !- Handle
  1;                                      !- Number of Timesteps per Hour

OS:ShadowCalculation,
  {aee01b03-31a9-42de-8486-28f311f8d6d4}, !- Handle
  PolygonClipping,                        !- Shading Calculation Method
  ,                                       !- Shading Calculation Update Frequency Method
  20,                                     !- Shading Calculation Update Frequency
  15000,                                  !- Maximum Figures in Shadow Overlap Calculations
  ,                                       !- Polygon Clipping Algorithm
  512,                                    !- Pixel Counting Resolution
  ,                                       !- Sky Diffuse Modeling Algorithm
  No,                                     !- Output External Shading Calculation Results
  No,                                     !- Disable Self-Shading Within Shading Zone Groups
  No;                                     !- Disable Self-Shading From Shading Zone Groups to Other Zones

OS:HeatBalanceAlgorithm,
  {bf99c8db-6856-4a0a-88dd-ce16be7b6833}, !- Handle
  ConductionTransferFunction,             !- Algorithm
  200;                                    !- Surface Temperature Upper Limit {C}

OS:RunPeriod,
  {94bb2815-5394-433c-b226-1302fd639b64}, !- Handle
  Run Period 1,                           !- Name
  1,                                      !- Begin Month
  1,                                      !- Begin Day of Month
  12,                                     !- End Month
  31,                                     !- End Day of Month
  ,                                       !- Use Weather File Holidays and Special Days
  ,                                       !- Use Weather File Daylight Saving Period
  ,                                       !- Apply Weekend Holiday Rule
  ,                                       !- Use Weather File Rain Indicators
  ,                                       !- Use Weather File Snow Indicators
  ;                                       !- Number of Times Runperiod to be Repeated

OS:LifeCycleCost:Parameters,
  {7bdcafc4-c7f2-4bb8-8e33-5e32fdd015e7}, !- Handle
  ,                                       !- Analysis Type
  ,                                       !- Discounting Convention
  ,                                       !- Inflation Approach
  ,                                       !- Real Discount Rate
  ,                                       !- Nominal Discount Rate
  ,                                       !- Inflation
  ,                                       !- Base Date Month
  ,                                       !- Base Date Year
  ,                                       !- Service Date Month
  ,                                       !- Service Date Year
  ;                                       !- Length of Study Period in Years

OS:YearDescription,
  {8d16cbae-da40-405d-b2d3-2c0174c52c1a}, !- Handle
  2017,                                   !- Calendar Year
  ,                                       !- Day of Week for Start Day
  ;                                       !- Is Leap Year

OS:WeatherFile,
  {86574733-fcdd-485f-88c6-b2fd97c5c4dc}, !- Handle
  Buffalo Niagara Intl Ap,                !- City
  NY,                                     !- State Province Region
  USA,                                    !- Country
  TMY3,                                   !- Data Source
  725280,                                 !- WMO Number
  42.93,                                  !- Latitude {deg}
  -78.73,                                 !- Longitude {deg}
  -5,                                     !- Time Zone {hr}
  215,                                    !- Elevation {m}
  /Users/nlong/working/dissertation-analysis/dc/analysis/esbe/activity_3/coincident/weather/USA_NY_Buffalo-Greater.Buffalo.Intl.AP.725280_TMY3.epw, !- Url
  ;                                       !- Checksum

OS:Site:WaterMainsTemperature,
  {0ddc724a-c6c5-4419-bdfb-f52d92cba369}, !- Handle
  Correlation,                            !- Calculation Method
  ,                                       !- Temperature Schedule Name
  8.96666666666667,                       !- Annual Average Outdoor Air Temperature {C}
  26.2;                                   !- Maximum Difference In Monthly Average Outdoor Air Temperatures {deltaC}

OS:SizingPeriod:DesignDay,
  {87a66149-7d33-4f42-a865-78b19a9e13e3}, !- Handle
  Buffalo Niagara Intl Ap Ann Clg .4% Condns DB=>MWB 1, !- Name
  30.3,                                   !- Maximum Dry-Bulb Temperature {C}
  9.3,                                    !- Daily Dry-Bulb Temperature Range {deltaC}
  98769,                                  !- Barometric Pressure {Pa}
  5.7,                                    !- Wind Speed {m/s}
  240,                                    !- Wind Direction {deg}
  ,                                       !- Sky Clearness
  No,                                     !- Rain Indicator
  No,                                     !- Snow Indicator
  21,                                     !- Day of Month
  7,                                      !- Month
  SummerDesignDay,                        !- Day Type
  No,                                     !- Daylight Saving Time Indicator
  Wetbulb,                                !- Humidity Condition Type
  ,                                       !- Humidity Condition Day Schedule Name
  21.8,                                   !- Wetbulb or DewPoint at Maximum Dry-Bulb {C}
  ,                                       !- Humidity Ratio at Maximum Dry-Bulb {kgWater/kgDryAir}
  ,                                       !- Enthalpy at Maximum Dry-Bulb {J/kg}
  DefaultMultipliers,                     !- Dry-Bulb Temperature Range Modifier Type
  ,                                       !- Dry-Bulb Temperature Range Modifier Day Schedule Name
  ASHRAETau,                              !- Solar Model Indicator
  ,                                       !- Beam Solar Day Schedule Name
  ,                                       !- Diffuse Solar Day Schedule Name
  0.462,                                  !- ASHRAE Clear Sky Optical Depth for Beam Irradiance {dimensionless}
  2.001;                                  !- ASHRAE Clear Sky Optical Depth for Diffuse Irradiance {dimensionless}

OS:SizingPeriod:DesignDay,
  {715dc92c-c7b7-4c82-bedd-09ae962e2899}, !- Handle
  Buffalo Niagara Intl Ap Ann Clg .4% Condns WB=>MDB 1, !- Name
  27.8,                                   !- Maximum Dry-Bulb Temperature {C}
  9.3,                                    !- Daily Dry-Bulb Temperature Range {deltaC}
  98769,                                  !- Barometric Pressure {Pa}
  5.7,                                    !- Wind Speed {m/s}
  240,                                    !- Wind Direction {deg}
  ,                                       !- Sky Clearness
  No,                                     !- Rain Indicator
  No,                                     !- Snow Indicator
  21,                                     !- Day of Month
  7,                                      !- Month
  SummerDesignDay,                        !- Day Type
  No,                                     !- Daylight Saving Time Indicator
  Wetbulb,                                !- Humidity Condition Type
  ,                                       !- Humidity Condition Day Schedule Name
  23.8,                                   !- Wetbulb or DewPoint at Maximum Dry-Bulb {C}
  ,                                       !- Humidity Ratio at Maximum Dry-Bulb {kgWater/kgDryAir}
  ,                                       !- Enthalpy at Maximum Dry-Bulb {J/kg}
  DefaultMultipliers,                     !- Dry-Bulb Temperature Range Modifier Type
  ,                                       !- Dry-Bulb Temperature Range Modifier Day Schedule Name
  ASHRAETau,                              !- Solar Model Indicator
  ,                                       !- Beam Solar Day Schedule Name
  ,                                       !- Diffuse Solar Day Schedule Name
  0.462,                                  !- ASHRAE Clear Sky Optical Depth for Beam Irradiance {dimensionless}
  2.001;                                  !- ASHRAE Clear Sky Optical Depth for Diffuse Irradiance {dimensionless}

OS:SizingPeriod:DesignDay,
  {96bfef29-1a3d-43cf-9326-21aaa0ecf75e}, !- Handle
  Buffalo Niagara Intl Ap Ann Htg 99.6% Condns DB 1, !- Name
  -16.3,                                  !- Maximum Dry-Bulb Temperature {C}
  0,                                      !- Daily Dry-Bulb Temperature Range {deltaC}
  98769,                                  !- Barometric Pressure {Pa}
  5.1,                                    !- Wind Speed {m/s}
  270,                                    !- Wind Direction {deg}
  0,                                      !- Sky Clearness
  No,                                     !- Rain Indicator
  No,                                     !- Snow Indicator
  21,                                     !- Day of Month
  1,                                      !- Month
  WinterDesignDay,                        !- Day Type
  No,                                     !- Daylight Saving Time Indicator
  Wetbulb,                                !- Humidity Condition Type
  ,                                       !- Humidity Condition Day Schedule Name
  -16.3,                                  !- Wetbulb or DewPoint at Maximum Dry-Bulb {C}
  ,                                       !- Humidity Ratio at Maximum Dry-Bulb {kgWater/kgDryAir}
  ,                                       !- Enthalpy at Maximum Dry-Bulb {J/kg}
  DefaultMultipliers,                     !- Dry-Bulb Temperature Range Modifier Type
  ,                                       !- Dry-Bulb Temperature Range Modifier Day Schedule Name
  ASHRAEClearSky;                         !- Solar Model Indicator

OS:ClimateZones,
  {47ae21c2-7c8d-4dba-8dfd-54987ad02557}, !- Handle
  ASHRAE,                                 !- Climate Zone Institution Name 1
  ANSI/ASHRAE Standard 169,               !- Climate Zone Document Name 1
  2006,                                   !- Climate Zone Document Year 1
  6A;                                     !- Climate Zone Value 1

OS:Rendering:Color,
  {b5f71c9e-0853-45ce-bdbe-ed0b6dffe4cb}, !- Handle
  Office WholeBuilding - Sm Office,       !- Name
  120,                                    !- Rendering Red Value
  230,                                    !- Rendering Green Value
  199;                                    !- Rendering Blue Value

OS:RunPeriodControl:DaylightSavingTime,
  {49ffbe1b-a25c-44a7-b83f-0b09d2489c8d}, !- Handle
  2nd Sunday in March,                    !- Start Date
  1st Sunday in November;                 !- End Date

OS:People:Definition,
  {acd92dfb-5b62-49e1-afcc-01b68290dbd8}, !- Handle
  Office WholeBuilding - Sm Office People Definition, !- Name
  People/Area,                            !- Number of People Calculation Method
  ,                                       !- Number of People {people}
  0.0602778983335744,                     !- People per Space Floor Area {person/m2}
  ,                                       !- Space Floor Area per Person {m2/person}
  0.3,                                    !- Fraction Radiant
  ,                                       !- Sensible Heat Fraction
  ,                                       !- Carbon Dioxide Generation Rate {m3/s-W}
  Yes,                                    !- Enable ASHRAE 55 Comfort Warnings
  ZoneAveraged,                           !- Mean Radiant Temperature Calculation Type
  Fanger;                                 !- Thermal Comfort Model Type 1

OS:Schedule:Ruleset,
  {7691d5f9-1f30-4446-a36d-4d7b20153dba}, !- Handle
  Clothing Schedule,                      !- Name
  {a02d67b4-8853-4485-9fb0-682e49638ce1}, !- Schedule Type Limits Name
  {a7f302ca-b43d-4fe2-b79e-52cc8af41424}; !- Default Day Schedule Name

OS:Schedule:Day,
  {a7f302ca-b43d-4fe2-b79e-52cc8af41424}, !- Handle
  Clothing Schedule Default Winter Clothes, !- Name
  {a02d67b4-8853-4485-9fb0-682e49638ce1}, !- Schedule Type Limits Name
  ,                                       !- Interpolate to Timestep
  24,                                     !- Hour 1
  0,                                      !- Minute 1
  1;                                      !- Value Until Time 1

OS:Schedule:Rule,
  {262c3b76-460b-4401-b98b-c062db15f46a}, !- Handle
  Schedule Rule 1,                        !- Name
  {7691d5f9-1f30-4446-a36d-4d7b20153dba}, !- Schedule Ruleset Name
  0,                                      !- Rule Order
  {5a541288-c841-43f9-a8dc-911cb49e6be1}, !- Day Schedule Name
  ,                                       !- Apply Sunday
  ,                                       !- Apply Monday
  ,                                       !- Apply Tuesday
  ,                                       !- Apply Wednesday
  ,                                       !- Apply Thursday
  ,                                       !- Apply Friday
  ,                                       !- Apply Saturday
  DateRange,                              !- Date Specification Type
  5,                                      !- Start Month
  1,                                      !- Start Day
  9,                                      !- End Month
  30;                                     !- End Day

OS:Schedule:Day,
  {5a541288-c841-43f9-a8dc-911cb49e6be1}, !- Handle
  Clothing Schedule Summer Clothes,       !- Name
  {a02d67b4-8853-4485-9fb0-682e49638ce1}, !- Schedule Type Limits Name
  ,                                       !- Interpolate to Timestep
  24,                                     !- Hour 1
  0,                                      !- Minute 1
  0.5;                                    !- Value Until Time 1

OS:ScheduleTypeLimits,
  {a02d67b4-8853-4485-9fb0-682e49638ce1}, !- Handle
  ClothingInsulation,                     !- Name
  0,                                      !- Lower Limit Value
  ,                                       !- Upper Limit Value
  Continuous,                             !- Numeric Type
  ClothingInsulation;                     !- Unit Type

OS:Schedule:Ruleset,
  {66df9a69-a227-46d8-bc7d-4a75faf03383}, !- Handle
  Air Velocity Schedule,                  !- Name
  {c51653de-1983-4177-8d55-bb978fce6837}, !- Schedule Type Limits Name
  {59b92858-dffd-4dd3-9c0b-539114de1bdb}; !- Default Day Schedule Name

OS:Schedule:Day,
  {59b92858-dffd-4dd3-9c0b-539114de1bdb}, !- Handle
  Air Velocity Schedule Default,          !- Name
  {c51653de-1983-4177-8d55-bb978fce6837}, !- Schedule Type Limits Name
  ,                                       !- Interpolate to Timestep
  24,                                     !- Hour 1
  0,                                      !- Minute 1
  0.2;                                    !- Value Until Time 1

OS:ScheduleTypeLimits,
  {c51653de-1983-4177-8d55-bb978fce6837}, !- Handle
  Velocity,                               !- Name
  0,                                      !- Lower Limit Value
  ,                                       !- Upper Limit Value
  Continuous,                             !- Numeric Type
  Velocity;                               !- Unit Type

OS:Schedule:Ruleset,
  {2fc46d7d-8aba-43d0-b051-9ee2218d883e}, !- Handle
  Work Efficiency Schedule,               !- Name
  {820def01-cb01-4f0b-98b7-34c69015327f}, !- Schedule Type Limits Name
  {1682d1b8-875c-4a74-a519-6ebdbd1c503d}; !- Default Day Schedule Name

OS:Schedule:Day,
  {1682d1b8-875c-4a74-a519-6ebdbd1c503d}, !- Handle
  Work Efficiency Schedule Default,       !- Name
  {820def01-cb01-4f0b-98b7-34c69015327f}, !- Schedule Type Limits Name
  ,                                       !- Interpolate to Timestep
  24,                                     !- Hour 1
  0,                                      !- Minute 1
  0;                                      !- Value Until Time 1

OS:ScheduleTypeLimits,
  {820def01-cb01-4f0b-98b7-34c69015327f}, !- Handle
  Fractional,                             !- Name
  0,                                      !- Lower Limit Value
  1,                                      !- Upper Limit Value
  Continuous;                             !- Numeric Type

OS:Lights:Definition,
  {466590af-1051-4d56-bde5-8b24af20e2ab}, !- Handle
  Office WholeBuilding - Sm Office Lights Definition, !- Name
  Watts/Area,                             !- Design Level Calculation Method
  ,                                       !- Lighting Level {W}
  8.82640654170197,                       !- Watts per Space Floor Area {W/m2}
  ,                                       !- Watts per Person {W/person}
  0.7,                                    !- Fraction Radiant
  0.2,                                    !- Fraction Visible
  0;                                      !- Return Air Fraction

OS:AdditionalProperties,
  {5d2bb5ed-0aa2-418f-a62b-61cb28a8865c}, !- Handle
  {466590af-1051-4d56-bde5-8b24af20e2ab}, !- Object Name
  lpd_fraction_linear_fluorescent,        !- Feature Name 1
  Double,                                 !- Feature Data Type 1
  1;                                      !- Feature Value 1

OS:ElectricEquipment:Definition,
  {38abebd3-3c26-4482-8779-adba77b17acc}, !- Handle
  Office WholeBuilding - Sm Office Elec Equip Definition, !- Name
  Watts/Area,                             !- Design Level Calculation Method
  ,                                       !- Design Level {W}
  6.78126356252712,                       !- Watts per Space Floor Area {W/m2}
  ,                                       !- Watts per Person {W/person}
  0,                                      !- Fraction Latent
  0,                                      !- Fraction Radiant
  0;                                      !- Fraction Lost

OS:DesignSpecification:OutdoorAir,
  {504e7cdb-b025-462b-b9e4-7629341581ff}, !- Handle
  Office WholeBuilding - Sm Office Ventilation, !- Name
  Sum,                                    !- Outdoor Air Method
  ,                                       !- Outdoor Air Flow per Person {m3/s-person}
  0.0004318,                              !- Outdoor Air Flow per Floor Area {m3/s-m2}
  ,                                       !- Outdoor Air Flow Rate {m3/s}
  ,                                       !- Outdoor Air Flow Air Changes per Hour {1/hr}
  ;                                       !- Outdoor Air Flow Rate Fraction Schedule Name

OS:DefaultScheduleSet,
  {98674b52-1e0a-41d1-bca2-304bdfe725fe}, !- Handle
  Office WholeBuilding - Sm Office Schedule Set, !- Name
  ,                                       !- Hours of Operation Schedule Name
  {250763a5-73ef-4257-bc10-5729715b15de}, !- Number of People Schedule Name
  {e7a76e4d-4dd7-4db6-b378-13ea592ed4ee}, !- People Activity Level Schedule Name
  {f25b8ff1-4f4a-4693-b9ad-f1e1c0d55bd0}, !- Lighting Schedule Name
  {23a97db3-a18f-4e05-b019-f5b8513f856c}, !- Electric Equipment Schedule Name
  ,                                       !- Gas Equipment Schedule Name
  ,                                       !- Hot Water Equipment Schedule Name
  {62705673-cedc-498c-a05c-a553984d4883}, !- Infiltration Schedule Name
  ,                                       !- Steam Equipment Schedule Name
  ;                                       !- Other Equipment Schedule Name

OS:Schedule:Ruleset,
  {250763a5-73ef-4257-bc10-5729715b15de}, !- Handle
  OfficeSmall BLDG_OCC_SCH,               !- Name
  {820def01-cb01-4f0b-98b7-34c69015327f}, !- Schedule Type Limits Name
  {85051880-485e-4d47-a182-d9b591299d83}, !- Default Day Schedule Name
  {5e7d254c-5d14-4320-ad02-94eb71765e9a}, !- Summer Design Day Schedule Name
  {e635a378-45e8-4562-96b6-b2864706b9c0}; !- Winter Design Day Schedule Name

OS:Schedule:Day,
  {85051880-485e-4d47-a182-d9b591299d83}, !- Handle
  OfficeSmall BLDG_OCC_SCH Default,       !- Name
  {820def01-cb01-4f0b-98b7-34c69015327f}, !- Schedule Type Limits Name
  Yes,                                    !- Interpolate to Timestep
  9,                                      !- Hour 1
  0,                                      !- Minute 1
  0,                                      !- Value Until Time 1
  24,                                     !- Hour 2
  0,                                      !- Minute 2
  0;                                      !- Value Until Time 2

OS:Schedule:Day,
  {e635a378-45e8-4562-96b6-b2864706b9c0}, !- Handle
  OfficeSmall BLDG_OCC_SCH Winter Design Day, !- Name
  {820def01-cb01-4f0b-98b7-34c69015327f}, !- Schedule Type Limits Name
  ,                                       !- Interpolate to Timestep
  24,                                     !- Hour 1
  0,                                      !- Minute 1
  0;                                      !- Value Until Time 1

OS:Schedule:Day,
  {5e7d254c-5d14-4320-ad02-94eb71765e9a}, !- Handle
  OfficeSmall BLDG_OCC_SCH Summer Design Day, !- Name
  {820def01-cb01-4f0b-98b7-34c69015327f}, !- Schedule Type Limits Name
  ,                                       !- Interpolate to Timestep
  24,                                     !- Hour 1
  0,                                      !- Minute 1
  1;                                      !- Value Until Time 1

OS:Schedule:Rule,
  {b4901755-21b4-416e-bf6b-b15e5c551bd3}, !- Handle
  Schedule Rule 2,                        !- Name
  {250763a5-73ef-4257-bc10-5729715b15de}, !- Schedule Ruleset Name
  0,                                      !- Rule Order
  {8e3722ff-1133-4769-b99a-0f1c79c3fb76}, !- Day Schedule Name
  ,                                       !- Apply Sunday
  Yes,                                    !- Apply Monday
  Yes,                                    !- Apply Tuesday
  Yes,                                    !- Apply Wednesday
  Yes,                                    !- Apply Thursday
  Yes,                                    !- Apply Friday
  ,                                       !- Apply Saturday
  DateRange,                              !- Date Specification Type
  1,                                      !- Start Month
  1,                                      !- Start Day
  12,                                     !- End Month
  31;                                     !- End Day

OS:Schedule:Day,
  {8e3722ff-1133-4769-b99a-0f1c79c3fb76}, !- Handle
  OfficeSmall BLDG_OCC_SCH Wkdy Day,      !- Name
  {820def01-cb01-4f0b-98b7-34c69015327f}, !- Schedule Type Limits Name
  Yes,                                    !- Interpolate to Timestep
  6,                                      !- Hour 1
  30,                                     !- Minute 1
  0,                                      !- Value Until Time 1
  7,                                      !- Hour 2
  30,                                     !- Minute 2
  0.11,                                   !- Value Until Time 2
  8,                                      !- Hour 3
  30,                                     !- Minute 3
  0.21,                                   !- Value Until Time 3
  9,                                      !- Hour 4
  30,                                     !- Minute 4
  1,                                      !- Value Until Time 4
  11,                                     !- Hour 5
  30,                                     !- Minute 5
  1,                                      !- Value Until Time 5
  12,                                     !- Hour 6
  30,                                     !- Minute 6
  0.53,                                   !- Value Until Time 6
  13,                                     !- Hour 7
  30,                                     !- Minute 7
  1,                                      !- Value Until Time 7
  15,                                     !- Hour 8
  30,                                     !- Minute 8
  1,                                      !- Value Until Time 8
  16,                                     !- Hour 9
  30,                                     !- Minute 9
  0.32,                                   !- Value Until Time 9
  17,                                     !- Hour 10
  30,                                     !- Minute 10
  0.11,                                   !- Value Until Time 10
  20,                                     !- Hour 11
  30,                                     !- Minute 11
  0.11,                                   !- Value Until Time 11
  21,                                     !- Hour 12
  30,                                     !- Minute 12
  0.05,                                   !- Value Until Time 12
  22,                                     !- Hour 13
  30,                                     !- Minute 13
  0,                                      !- Value Until Time 13
  24,                                     !- Hour 14
  0,                                      !- Minute 14
  0;                                      !- Value Until Time 14

OS:Schedule:Ruleset,
  {e7a76e4d-4dd7-4db6-b378-13ea592ed4ee}, !- Handle
  OfficeSmall ACTIVITY_SCH,               !- Name
  {3aa13752-a009-4eae-a9b5-fd0f26db7788}, !- Schedule Type Limits Name
  {eb59e54f-65af-4765-879a-67b10e468042}, !- Default Day Schedule Name
  {73cb6025-bc56-40b8-9391-4d04faee5347}, !- Summer Design Day Schedule Name
  {a571acdd-a04a-42b2-9c0a-bbfa54a441c8}; !- Winter Design Day Schedule Name

OS:Schedule:Day,
  {eb59e54f-65af-4765-879a-67b10e468042}, !- Handle
  OfficeSmall ACTIVITY_SCH Default,       !- Name
  {3aa13752-a009-4eae-a9b5-fd0f26db7788}, !- Schedule Type Limits Name
  Yes,                                    !- Interpolate to Timestep
  24,                                     !- Hour 1
  0,                                      !- Minute 1
  120;                                    !- Value Until Time 1

OS:Schedule:Day,
  {a571acdd-a04a-42b2-9c0a-bbfa54a441c8}, !- Handle
  OfficeSmall ACTIVITY_SCH Winter Design Day, !- Name
  {3aa13752-a009-4eae-a9b5-fd0f26db7788}, !- Schedule Type Limits Name
  ,                                       !- Interpolate to Timestep
  24,                                     !- Hour 1
  0,                                      !- Minute 1
  120;                                    !- Value Until Time 1

OS:Schedule:Day,
  {73cb6025-bc56-40b8-9391-4d04faee5347}, !- Handle
  OfficeSmall ACTIVITY_SCH Summer Design Day, !- Name
  {3aa13752-a009-4eae-a9b5-fd0f26db7788}, !- Schedule Type Limits Name
  ,                                       !- Interpolate to Timestep
  24,                                     !- Hour 1
  0,                                      !- Minute 1
  120;                                    !- Value Until Time 1

OS:ScheduleTypeLimits,
  {3aa13752-a009-4eae-a9b5-fd0f26db7788}, !- Handle
  ActivityLevel,                          !- Name
  0,                                      !- Lower Limit Value
  ,                                       !- Upper Limit Value
  Continuous,                             !- Numeric Type
  ActivityLevel;                          !- Unit Type

OS:Schedule:Ruleset,
  {f25b8ff1-4f4a-4693-b9ad-f1e1c0d55bd0}, !- Handle
  OfficeSmall BLDG_LIGHT_SCH_2013,        !- Name
  {820def01-cb01-4f0b-98b7-34c69015327f}, !- Schedule Type Limits Name
  {73c8f3c9-a701-4972-b91f-fff2ab08d88b}, !- Default Day Schedule Name
  {89553eda-ef19-4610-bdb5-cbeef8f28708}, !- Summer Design Day Schedule Name
  {cb467a46-665c-4e39-8e1e-aab6510a31aa}; !- Winter Design Day Schedule Name

OS:Schedule:Day,
  {73c8f3c9-a701-4972-b91f-fff2ab08d88b}, !- Handle
  OfficeSmall BLDG_LIGHT_SCH_2013 Default, !- Name
  {820def01-cb01-4f0b-98b7-34c69015327f}, !- Schedule Type Limits Name
  Yes,                                    !- Interpolate to Timestep
  5,                                      !- Hour 1
  30,                                     !- Minute 1
  0.18,                                   !- Value Until Time 1
  6,                                      !- Hour 2
  30,                                     !- Minute 2
  0.23,                                   !- Value Until Time 2
  7,                                      !- Hour 3
  30,                                     !- Minute 3