
OS:Version,
  {e56532af-9fd9-48c3-a170-c2bb0ba42ff7}, !- Handle
  3.5.1;                                  !- Version Identifier

OS:Facility,
  {f2a0867b-19a2-4f34-afd6-44a6adcaf642}; !- Handle

OS:Site,
  {7d8cec47-8d21-4a2f-907a-45537b851a81}, !- Handle
  Buffalo Niagara Intl Ap_NY_USA,         !- Name
  42.8188376032317,                       !- Latitude {deg}
  -78.8513233501223,                      !- Longitude {deg}
  -5,                                     !- Time Zone {hr}
  53.6448,                                !- Elevation {m}
  City;                                   !- Terrain

OS:SimulationControl,
  {6c637978-4cf4-4fef-b70f-db7e59fc2e81}, !- Handle
  ,                                       !- Do Zone Sizing Calculation
  ,                                       !- Do System Sizing Calculation
  ,                                       !- Do Plant Sizing Calculation
  No,                                     !- Run Simulation for Sizing Periods
  Yes,                                    !- Run Simulation for Weather File Run Periods
  ,                                       !- Loads Convergence Tolerance Value {W}
  ,                                       !- Temperature Convergence Tolerance Value {deltaC}
  ,                                       !- Solar Distribution
  ,                                       !- Maximum Number of Warmup Days
  ,                                       !- Minimum Number of Warmup Days
  No,                                     !- Do HVAC Sizing Simulation for Sizing Periods
  1;                                      !- Maximum Number of HVAC Sizing Simulation Passes

OS:Sizing:Parameters,
  {1f616a4b-6057-431e-8dfc-9a60c1c5e576}, !- Handle
  1.25,                                   !- Heating Sizing Factor
  1.15;                                   !- Cooling Sizing Factor

OS:Timestep,
  {d4047100-82ba-4774-a4b5-a2902b65a741}, !- Handle
  1;                                      !- Number of Timesteps per Hour

OS:ShadowCalculation,
  {641bdc07-8a37-42b1-800c-0ddf0e0117a6}, !- Handle
  PolygonClipping,                        !- Shading Calculation Method
  ,                                       !- Shading Calculation Update Frequency Method
  20,                                     !- Shading Calculation Update Frequency
  15000,                                  !- Maximum Figures in Shadow Overlap Calculations
  ,                                       !- Polygon Clipping Algorithm
  512,                                    !- Pixel Counting Resolution
  ,                                       !- Sky Diffuse Modeling Algorithm
  No,                                     !- Output External Shading Calculation Results
  No,                                     !- Disable Self-Shading Within Shading Zone Groups
  No;                                     !- Disable Self-Shading From Shading Zone Groups to Other Zones

OS:HeatBalanceAlgorithm,
  {9ea3d1ca-5a48-44fc-a230-09a0a15c56f4}, !- Handle
  ConductionTransferFunction,             !- Algorithm
  200;                                    !- Surface Temperature Upper Limit {C}

OS:RunPeriod,
  {9ad4b454-70f2-4160-af56-d737ed1c9bf5}, !- Handle
  Run Period 1,                           !- Name
  1,                                      !- Begin Month
  1,                                      !- Begin Day of Month
  12,                                     !- End Month
  31,                                     !- End Day of Month
  ,                                       !- Use Weather File Holidays and Special Days
  ,                                       !- Use Weather File Daylight Saving Period
  ,                                       !- Apply Weekend Holiday Rule
  ,                                       !- Use Weather File Rain Indicators
  ,                                       !- Use Weather File Snow Indicators
  ;                                       !- Number of Times Runperiod to be Repeated

OS:LifeCycleCost:Parameters,
  {ffb3287a-393e-4b0f-8c5b-42fdb85b2dd4}, !- Handle
  ,                                       !- Analysis Type
  ,                                       !- Discounting Convention
  ,                                       !- Inflation Approach
  ,                                       !- Real Discount Rate
  ,                                       !- Nominal Discount Rate
  ,                                       !- Inflation
  ,                                       !- Base Date Month
  ,                                       !- Base Date Year
  ,                                       !- Service Date Month
  ,                                       !- Service Date Year
  ;                                       !- Length of Study Period in Years

OS:YearDescription,
  {2abd1c8f-265b-40c4-be64-4f0b199fb626}, !- Handle
  2017,                                   !- Calendar Year
  ,                                       !- Day of Week for Start Day
  ;                                       !- Is Leap Year

OS:WeatherFile,
  {70047fa7-28a6-47bc-886f-2ae26b1aa713}, !- Handle
  Buffalo Niagara Intl Ap,                !- City
  NY,                                     !- State Province Region
  USA,                                    !- Country
  TMY3,                                   !- Data Source
  725280,                                 !- WMO Number
  42.93,                                  !- Latitude {deg}
  -78.73,                                 !- Longitude {deg}
  -5,                                     !- Time Zone {hr}
  215,                                    !- Elevation {m}
  /Users/nlong/working/dissertation-analysis/dc/analysis/esbe/activity_3/coincident/weather/USA_NY_Buffalo-Greater.Buffalo.Intl.AP.725280_TMY3.epw, !- Url
  ;                                       !- Checksum

OS:Site:WaterMainsTemperature,
  {32288e23-8657-434e-a7d9-5d9064de7feb}, !- Handle
  Correlation,                            !- Calculation Method
  ,                                       !- Temperature Schedule Name
  8.96666666666667,                       !- Annual Average Outdoor Air Temperature {C}
  26.2;                                   !- Maximum Difference In Monthly Average Outdoor Air Temperatures {deltaC}

OS:SizingPeriod:DesignDay,
  {24d091bf-8590-4f4a-8b13-adce897c530e}, !- Handle
  Buffalo Niagara Intl Ap Ann Clg .4% Condns DB=>MWB 1, !- Name
  30.3,                                   !- Maximum Dry-Bulb Temperature {C}
  9.3,                                    !- Daily Dry-Bulb Temperature Range {deltaC}
  98769,                                  !- Barometric Pressure {Pa}
  5.7,                                    !- Wind Speed {m/s}
  240,                                    !- Wind Direction {deg}
  ,                                       !- Sky Clearness
  No,                                     !- Rain Indicator
  No,                                     !- Snow Indicator
  21,                                     !- Day of Month
  7,                                      !- Month
  SummerDesignDay,                        !- Day Type
  No,                                     !- Daylight Saving Time Indicator
  Wetbulb,                                !- Humidity Condition Type
  ,                                       !- Humidity Condition Day Schedule Name
  21.8,                                   !- Wetbulb or DewPoint at Maximum Dry-Bulb {C}
  ,                                       !- Humidity Ratio at Maximum Dry-Bulb {kgWater/kgDryAir}
  ,                                       !- Enthalpy at Maximum Dry-Bulb {J/kg}
  DefaultMultipliers,                     !- Dry-Bulb Temperature Range Modifier Type
  ,                                       !- Dry-Bulb Temperature Range Modifier Day Schedule Name
  ASHRAETau,                              !- Solar Model Indicator
  ,                                       !- Beam Solar Day Schedule Name
  ,                                       !- Diffuse Solar Day Schedule Name
  0.462,                                  !- ASHRAE Clear Sky Optical Depth for Beam Irradiance {dimensionless}
  2.001;                                  !- ASHRAE Clear Sky Optical Depth for Diffuse Irradiance {dimensionless}

OS:SizingPeriod:DesignDay,
  {97835c53-410d-460e-a91f-bac6702687a9}, !- Handle
  Buffalo Niagara Intl Ap Ann Clg .4% Condns WB=>MDB 1, !- Name
  27.8,                                   !- Maximum Dry-Bulb Temperature {C}
  9.3,                                    !- Daily Dry-Bulb Temperature Range {deltaC}
  98769,                                  !- Barometric Pressure {Pa}
  5.7,                                    !- Wind Speed {m/s}
  240,                                    !- Wind Direction {deg}
  ,                                       !- Sky Clearness
  No,                                     !- Rain Indicator
  No,                                     !- Snow Indicator
  21,                                     !- Day of Month
  7,                                      !- Month
  SummerDesignDay,                        !- Day Type
  No,                                     !- Daylight Saving Time Indicator
  Wetbulb,                                !- Humidity Condition Type
  ,                                       !- Humidity Condition Day Schedule Name
  23.8,                                   !- Wetbulb or DewPoint at Maximum Dry-Bulb {C}
  ,                                       !- Humidity Ratio at Maximum Dry-Bulb {kgWater/kgDryAir}
  ,                                       !- Enthalpy at Maximum Dry-Bulb {J/kg}
  DefaultMultipliers,                     !- Dry-Bulb Temperature Range Modifier Type
  ,                                       !- Dry-Bulb Temperature Range Modifier Day Schedule Name
  ASHRAETau,                              !- Solar Model Indicator
  ,                                       !- Beam Solar Day Schedule Name
  ,                                       !- Diffuse Solar Day Schedule Name
  0.462,                                  !- ASHRAE Clear Sky Optical Depth for Beam Irradiance {dimensionless}
  2.001;                                  !- ASHRAE Clear Sky Optical Depth for Diffuse Irradiance {dimensionless}

OS:SizingPeriod:DesignDay,
  {68cf6ce0-9b09-440c-a5d4-8d6d30829bd2}, !- Handle
  Buffalo Niagara Intl Ap Ann Htg 99.6% Condns DB 1, !- Name
  -16.3,                                  !- Maximum Dry-Bulb Temperature {C}
  0,                                      !- Daily Dry-Bulb Temperature Range {deltaC}
  98769,                                  !- Barometric Pressure {Pa}
  5.1,                                    !- Wind Speed {m/s}
  270,                                    !- Wind Direction {deg}
  0,                                      !- Sky Clearness
  No,                                     !- Rain Indicator
  No,                                     !- Snow Indicator
  21,                                     !- Day of Month
  1,                                      !- Month
  WinterDesignDay,                        !- Day Type
  No,                                     !- Daylight Saving Time Indicator
  Wetbulb,                                !- Humidity Condition Type
  ,                                       !- Humidity Condition Day Schedule Name
  -16.3,                                  !- Wetbulb or DewPoint at Maximum Dry-Bulb {C}
  ,                                       !- Humidity Ratio at Maximum Dry-Bulb {kgWater/kgDryAir}
  ,                                       !- Enthalpy at Maximum Dry-Bulb {J/kg}
  DefaultMultipliers,                     !- Dry-Bulb Temperature Range Modifier Type
  ,                                       !- Dry-Bulb Temperature Range Modifier Day Schedule Name
  ASHRAEClearSky;                         !- Solar Model Indicator

OS:ClimateZones,
  {5ae4e41f-613e-45b4-a28e-d2626cf4efb8}, !- Handle
  ASHRAE,                                 !- Climate Zone Institution Name 1
  ANSI/ASHRAE Standard 169,               !- Climate Zone Document Name 1
  2006,                                   !- Climate Zone Document Year 1
  6A;                                     !- Climate Zone Value 1

OS:Rendering:Color,
  {3a120b84-3b75-43db-bdc4-1bf6de3aa5de}, !- Handle
  FullServiceRestaurant Kitchen,          !- Name
  78,                                     !- Rendering Red Value
  222,                                    !- Rendering Green Value
  133;                                    !- Rendering Blue Value

OS:Rendering:Color,
  {fe00bcc0-9010-42d0-9284-22f92b3d3099}, !- Handle
  FullServiceRestaurant Dining,           !- Name
  31,                                     !- Rendering Red Value
  169,                                    !- Rendering Green Value
  34;                                     !- Rendering Blue Value

OS:RunPeriodControl:DaylightSavingTime,
  {2acd3f94-c671-47ba-a6bf-de303c4c07fd}, !- Handle
  2nd Sunday in March,                    !- Start Date
  1st Sunday in November;                 !- End Date

OS:People:Definition,
  {58f0a281-c998-494d-b5f4-c3de6136106b}, !- Handle
  FullServiceRestaurant Dining People Definition, !- Name
  People/Area,                            !- Number of People Calculation Method
  ,                                       !- Number of People {people}
  0.753473729169681,                      !- People per Space Floor Area {person/m2}
  ,                                       !- Space Floor Area per Person {m2/person}
  0.3,                                    !- Fraction Radiant
  ,                                       !- Sensible Heat Fraction
  ,                                       !- Carbon Dioxide Generation Rate {m3/s-W}
  Yes,                                    !- Enable ASHRAE 55 Comfort Warnings
  ZoneAveraged,                           !- Mean Radiant Temperature Calculation Type
  Fanger;                                 !- Thermal Comfort Model Type 1

OS:Schedule:Ruleset,
  {20a41ae4-69ad-4976-8b6c-8707a95cbd8c}, !- Handle
  Clothing Schedule,                      !- Name
  {49b9e7f2-0a74-477a-a151-1960949a794c}, !- Schedule Type Limits Name
  {8ab8b827-8edf-4cdc-8c0e-1979fb404a28}; !- Default Day Schedule Name

OS:Schedule:Day,
  {8ab8b827-8edf-4cdc-8c0e-1979fb404a28}, !- Handle
  Clothing Schedule Default Winter Clothes, !- Name
  {49b9e7f2-0a74-477a-a151-1960949a794c}, !- Schedule Type Limits Name
  ,                                       !- Interpolate to Timestep
  24,                                     !- Hour 1
  0,                                      !- Minute 1
  1;                                      !- Value Until Time 1

OS:Schedule:Rule,
  {d785f4c8-dbe8-44fa-8e86-beb23e81f639}, !- Handle
  Schedule Rule 1,                        !- Name
  {20a41ae4-69ad-4976-8b6c-8707a95cbd8c}, !- Schedule Ruleset Name
  0,                                      !- Rule Order
  {f0da4a8c-b0ac-4ee3-af36-2b17af32e799}, !- Day Schedule Name
  ,                                       !- Apply Sunday
  ,                                       !- Apply Monday
  ,                                       !- Apply Tuesday
  ,                                       !- Apply Wednesday
  ,                                       !- Apply Thursday
  ,                                       !- Apply Friday
  ,                                       !- Apply Saturday
  DateRange,                              !- Date Specification Type
  5,                                      !- Start Month
  1,                                      !- Start Day
  9,                                      !- End Month
  30;                                     !- End Day

OS:Schedule:Day,
  {f0da4a8c-b0ac-4ee3-af36-2b17af32e799}, !- Handle
  Clothing Schedule Summer Clothes,       !- Name
  {49b9e7f2-0a74-477a-a151-1960949a794c}, !- Schedule Type Limits Name
  ,                                       !- Interpolate to Timestep
  24,                                     !- Hour 1
  0,                                      !- Minute 1
  0.5;                                    !- Value Until Time 1

OS:ScheduleTypeLimits,
  {49b9e7f2-0a74-477a-a151-1960949a794c}, !- Handle
  ClothingInsulation,                     !- Name
  0,                                      !- Lower Limit Value
  ,                                       !- Upper Limit Value
  Continuous,                             !- Numeric Type
  ClothingInsulation;                     !- Unit Type

OS:Schedule:Ruleset,
  {393814a6-05c7-441d-aeec-19579fc06131}, !- Handle
  Air Velocity Schedule,                  !- Name
  {928023be-b135-4d2e-966d-80aa241979fc}, !- Schedule Type Limits Name
  {e42b7d84-8ef3-41a2-8677-c18c4bfb5be3}; !- Default Day Schedule Name

OS:Schedule:Day,
  {e42b7d84-8ef3-41a2-8677-c18c4bfb5be3}, !- Handle
  Air Velocity Schedule Default,          !- Name
  {928023be-b135-4d2e-966d-80aa241979fc}, !- Schedule Type Limits Name
  ,                                       !- Interpolate to Timestep
  24,                                     !- Hour 1
  0,                                      !- Minute 1
  0.2;                                    !- Value Until Time 1

OS:ScheduleTypeLimits,
  {928023be-b135-4d2e-966d-80aa241979fc}, !- Handle
  Velocity,                               !- Name
  0,                                      !- Lower Limit Value
  ,                                       !- Upper Limit Value
  Continuous,                             !- Numeric Type
  Velocity;                               !- Unit Type

OS:Schedule:Ruleset,
  {65b5a9fc-47e8-4321-b4c8-41b7f242910f}, !- Handle
  Work Efficiency Schedule,               !- Name
  {9fea3115-a046-4c3a-b724-4b5f00c0c88d}, !- Schedule Type Limits Name
  {7797e895-f7ad-473a-9d6f-f78edaa121d2}; !- Default Day Schedule Name

OS:Schedule:Day,
  {7797e895-f7ad-473a-9d6f-f78edaa121d2}, !- Handle
  Work Efficiency Schedule Default,       !- Name
  {9fea3115-a046-4c3a-b724-4b5f00c0c88d}, !- Schedule Type Limits Name
  ,                                       !- Interpolate to Timestep
  24,                                     !- Hour 1
  0,                                      !- Minute 1
  0;                                      !- Value Until Time 1

OS:ScheduleTypeLimits,
  {9fea3115-a046-4c3a-b724-4b5f00c0c88d}, !- Handle
  Fractional,                             !- Name
  0,                                      !- Lower Limit Value
  1,                                      !- Upper Limit Value
  Continuous;                             !- Numeric Type

OS:Lights:Definition,
  {208a4a49-a9d2-4c11-a351-75ba16c70daa}, !- Handle
  FullServiceRestaurant Dining Lights Definition, !- Name
  Watts/Area,                             !- Design Level Calculation Method
  ,                                       !- Lighting Level {W}
  9.57988027087165,                       !- Watts per Space Floor Area {W/m2}
  ,                                       !- Watts per Person {W/person}
  0.7,                                    !- Fraction Radiant
  0.2,                                    !- Fraction Visible
  0;                                      !- Return Air Fraction

OS:AdditionalProperties,
  {f18cba80-74a6-4475-8069-0cf3544442c2}, !- Handle
  {208a4a49-a9d2-4c11-a351-75ba16c70daa}, !- Object Name
  lpd_fraction_linear_fluorescent,        !- Feature Name 1
  Double,                                 !- Feature Data Type 1
  1;                                      !- Feature Value 1

OS:ElectricEquipment:Definition,
  {5c105ee9-4300-45b7-a0ac-684ed310cea7}, !- Handle
  FullServiceRestaurant Dining Elec Equip Definition, !- Name
  Watts/Area,                             !- Design Level Calculation Method
  ,                                       !- Design Level {W}
  64.927907633593,                        !- Watts per Space Floor Area {W/m2}
  ,                                       !- Watts per Person {W/person}
  0.25,                                   !- Fraction Latent
  0.3,                                    !- Fraction Radiant
  0;                                      !- Fraction Lost

OS:DesignSpecification:OutdoorAir,
  {51e38895-17c2-4826-b269-a7ec68c9152d}, !- Handle
  FullServiceRestaurant Dining Ventilation, !- Name
  Sum,                                    !- Outdoor Air Method
  0.003539605824,                         !- Outdoor Air Flow per Person {m3/s-person}
  0.0009144,                              !- Outdoor Air Flow per Floor Area {m3/s-m2}
  ,                                       !- Outdoor Air Flow Rate {m3/s}
  ,                                       !- Outdoor Air Flow Air Changes per Hour {1/hr}
  ;                                       !- Outdoor Air Flow Rate Fraction Schedule Name

OS:DefaultScheduleSet,
  {76538a25-ae96-4654-8b30-6e9d72c5d641}, !- Handle
  FullServiceRestaurant Dining Schedule Set, !- Name
  ,                                       !- Hours of Operation Schedule Name
  {88162fb9-396e-4db6-89f4-381956d6267d}, !- Number of People Schedule Name
  {93385dba-4f6a-4dc3-9448-1a004774bde4}, !- People Activity Level Schedule Name
  {411cd025-7a83-4cde-ac64-3a8da5937f64}, !- Lighting Schedule Name
  {3e7c0f4f-da2a-4a47-bebb-c8b2070c97f5}, !- Electric Equipment Schedule Name
  ,                                       !- Gas Equipment Schedule Name
  ,                                       !- Hot Water Equipment Schedule Name
  {555f6491-73cd-44cb-9675-b616b5a930cb}, !- Infiltration Schedule Name
  ,                                       !- Steam Equipment Schedule Name
  ;                                       !- Other Equipment Schedule Name

OS:Schedule:Ruleset,
  {88162fb9-396e-4db6-89f4-381956d6267d}, !- Handle
  RestaurantSitDown BLDG_OCC_SCH,         !- Name
  {9fea3115-a046-4c3a-b724-4b5f00c0c88d}, !- Schedule Type Limits Name
  {799f49a6-a6bc-44f6-9148-c1b3f6c5f8f7}, !- Default Day Schedule Name
  {592e2b9d-2f4d-4ee8-9dda-30512cd478f4}, !- Summer Design Day Schedule Name
  {6ea83ca5-91da-4b3e-bb27-3a69a8aeef6e}; !- Winter Design Day Schedule Name

OS:Schedule:Day,
  {799f49a6-a6bc-44f6-9148-c1b3f6c5f8f7}, !- Handle
  RestaurantSitDown BLDG_OCC_SCH Default, !- Name
  {9fea3115-a046-4c3a-b724-4b5f00c0c88d}, !- Schedule Type Limits Name
  Yes,                                    !- Interpolate to Timestep
  8,                                      !- Hour 1
  30,                                     !- Minute 1
  0,                                      !- Value Until Time 1
  9,                                      !- Hour 2
  30,                                     !- Minute 2
  0.05,                                   !- Value Until Time 2
  10,                                     !- Hour 3
  30,                                     !- Minute 3
  0.5,                                    !- Value Until Time 3
  11,                                     !- Hour 4
  0,                                      !- Minute 4
  0.5,                                    !- Value Until Time 4
  12,                                     !- Hour 5
  0,                                      !- Minute 5
  0.35,                                   !- Value Until Time 5
  13,                                     !- Hour 6
  0,                                      !- Minute 6
  0.2,                                    !- Value Until Time 6
  14,                                     !- Hour 7
  0,                                      !- Minute 7
  0.25,                                   !- Value Until Time 7
  15,                                     !- Hour 8
  0,                                      !- Minute 8
  0.35,                                   !- Value Until Time 8
  16,                                     !- Hour 9
  0,                                      !- Minute 9
  0.55,                                   !- Value Until Time 9
  16,                                     !- Hour 10
  30,                                     !- Minute 10
  0.05,                                   !- Value Until Time 10
  17,                                     !- Hour 11
  30,                                     !- Minute 11
  0,                                      !- Value Until Time 11
  24,                                     !- Hour 12
  0,                                      !- Minute 12
  0;                                      !- Value Until Time 12

OS:Schedule:Rule,
  {a27ba7a2-1d33-4d92-8062-68d3cf2f793f}, !- Handle
  Schedule Rule 2,                        !- Name
  {88162fb9-396e-4db6-89f4-381956d6267d}, !- Schedule Ruleset Name
  1,                                      !- Rule Order
  {8f30639d-cbea-43cb-a427-b22db44aa11a}, !- Day Schedule Name
  ,                                       !- Apply Sunday
  ,                                       !- Apply Monday
  ,                                       !- Apply Tuesday
  ,                                       !- Apply Wednesday
  ,                                       !- Apply Thursday
  ,                                       !- Apply Friday
  Yes,                                    !- Apply Saturday
  DateRange,                              !- Date Specification Type
  1,                                      !- Start Month
  1,                                      !- Start Day
  12,                                     !- End Month
  31;                                     !- End Day

OS:Schedule:Day,
  {8f30639d-cbea-43cb-a427-b22db44aa11a}, !- Handle
  RestaurantSitDown BLDG_OCC_SCH Sat Day, !- Name
  {9fea3115-a046-4c3a-b724-4b5f00c0c88d}, !- Schedule Type Limits Name
  Yes,                                    !- Interpolate to Timestep
  8,                                      !- Hour 1
  30,                                     !- Minute 1
  0,                                      !- Value Until Time 1
  9,                                      !- Hour 2
  30,                                     !- Minute 2
  0.05,                                   !- Value Until Time 2
  10,                                     !- Hour 3
  30,                                     !- Minute 3
  0.5,                                    !- Value Until Time 3
  11,                                     !- Hour 4
  30,                                     !- Minute 4
  0.5,                                    !- Value Until Time 4
  12,                                     !- Hour 5
  30,                                     !- Minute 5
  0.7,                                    !- Value Until Time 5
  13,                                     !- Hour 6
  0,                                      !- Minute 6
  0.3,                                    !- Value Until Time 6
  15,                                     !- Hour 7
  0,                                      !- Minute 7
  0.3,                                    !- Value Until Time 7
  16,                                     !- Hour 8
  0,                                      !- Minute 8
  0.7,                                    !- Value Until Time 8
  16,                                     !- Hour 9
  30,                                     !- Minute 9
  0.05,                                   !- Value Until Time 9
  17,                                     !- Hour 10
  30,                                     !- Minute 10
  0,                                      !- Value Until Time 10
  24,                                     !- Hour 11
  0,                                      !- Minute 11
  0;                                      !- Value Until Time 11

OS:Schedule:Day,
  {592e2b9d-2f4d-4ee8-9dda-30512cd478f4}, !- Handle
  RestaurantSitDown BLDG_OCC_SCH Summer Design Day, !- Name
  {9fea3115-a046-4c3a-b724-4b5f00c0c88d}, !- Schedule Type Limits Name
  ,                                       !- Interpolate to Timestep
  24,                                     !- Hour 1
  0,                                      !- Minute 1
  1;                                      !- Value Until Time 1

OS:Schedule:Rule,
  {cb712b16-fa8a-44d8-987b-42c3a9f5aa4b}, !- Handle
  Schedule Rule 3,                        !- Name
  {88162fb9-396e-4db6-89f4-381956d6267d}, !- Schedule Ruleset Name
  0,                                      !- Rule Order
  {f1a5a21e-b48b-4e96-89ec-3d5f25978cfa}, !- Day Schedule Name
  ,                                       !- Apply Sunday
  Yes,                                    !- Apply Monday
  Yes,                                    !- Apply Tuesday
  Yes,                                    !- Apply Wednesday
  Yes,                                    !- Apply Thursday
  Yes,                                    !- Apply Friday
  ,                                       !- Apply Saturday
  DateRange,                              !- Date Specification Type
  1,                                      !- Start Month
  1,                                      !- Start Day
  12,                                     !- End Month
  31;                                     !- End Day

OS:Schedule:Day,
  {f1a5a21e-b48b-4e96-89ec-3d5f25978cfa}, !- Handle
  RestaurantSitDown BLDG_OCC_SCH Wkdy Day, !- Name
  {9fea3115-a046-4c3a-b724-4b5f00c0c88d}, !- Schedule Type Limits Name
  Yes,                                    !- Interpolate to Timestep
  7,                                      !- Hour 1
  30,                                     !- Minute 1
  0,                                      !- Value Until Time 1
  8,                                      !- Hour 2
  30,                                     !- Minute 2
  0.05,                                   !- Value Until Time 2
  9,                                      !- Hour 3
  30,                                     !- Minute 3
  0.1,                                    !- Value Until Time 3
  10,                                     !- Hour 4
  30,                                     !- Minute 4
  0.4,                                    !- Value Until Time 4
  11,                                     !- Hour 5
  30,                                     !- Minute 5
  0.6,                                    !- Value Until Time 5