
OS:Version,
  {8af20ec5-94cc-4170-a036-9a894ea32528}, !- Handle
  3.5.1;                                  !- Version Identifier

OS:Facility,
  {9b5d4fe4-5bdf-4d36-9a9d-fcf12883c998}; !- Handle

OS:Site,
  {eee74e58-157d-4624-823d-8c7542515616}, !- Handle
  Buffalo Niagara Intl Ap_NY_USA,         !- Name
  42.8197508951375,                       !- Latitude {deg}
  -78.8506472110748,                      !- Longitude {deg}
  -5,                                     !- Time Zone {hr}
  53.6448,                                !- Elevation {m}
  City;                                   !- Terrain

OS:SimulationControl,
  {bc1f52b0-b11d-4aff-8624-b081770103d2}, !- Handle
  ,                                       !- Do Zone Sizing Calculation
  ,                                       !- Do System Sizing Calculation
  ,                                       !- Do Plant Sizing Calculation
  No,                                     !- Run Simulation for Sizing Periods
  Yes,                                    !- Run Simulation for Weather File Run Periods
  ,                                       !- Loads Convergence Tolerance Value {W}
  ,                                       !- Temperature Convergence Tolerance Value {deltaC}
  ,                                       !- Solar Distribution
  ,                                       !- Maximum Number of Warmup Days
  ,                                       !- Minimum Number of Warmup Days
  No,                                     !- Do HVAC Sizing Simulation for Sizing Periods
  1;                                      !- Maximum Number of HVAC Sizing Simulation Passes

OS:Sizing:Parameters,
  {21c1342c-5488-4e77-bec1-74741683d307}, !- Handle
  1.25,                                   !- Heating Sizing Factor
  1.15;                                   !- Cooling Sizing Factor

OS:Timestep,
  {68e3fb07-cd7f-4fa5-937e-6c5448ea5599}, !- Handle
  1;                                      !- Number of Timesteps per Hour

OS:ShadowCalculation,
  {936d0210-2c23-42ae-85e3-1867739877e9}, !- Handle
  PolygonClipping,                        !- Shading Calculation Method
  ,                                       !- Shading Calculation Update Frequency Method
  20,                                     !- Shading Calculation Update Frequency
  15000,                                  !- Maximum Figures in Shadow Overlap Calculations
  ,                                       !- Polygon Clipping Algorithm
  512,                                    !- Pixel Counting Resolution
  ,                                       !- Sky Diffuse Modeling Algorithm
  No,                                     !- Output External Shading Calculation Results
  No,                                     !- Disable Self-Shading Within Shading Zone Groups
  No;                                     !- Disable Self-Shading From Shading Zone Groups to Other Zones

OS:HeatBalanceAlgorithm,
  {30f765fb-d66f-408a-916c-0e3eb1d51d56}, !- Handle
  ConductionTransferFunction,             !- Algorithm
  200;                                    !- Surface Temperature Upper Limit {C}

OS:RunPeriod,
  {5232a89f-694a-4cb6-a98a-32ce64ca03f7}, !- Handle
  Run Period 1,                           !- Name
  1,                                      !- Begin Month
  1,                                      !- Begin Day of Month
  12,                                     !- End Month
  31,                                     !- End Day of Month
  ,                                       !- Use Weather File Holidays and Special Days
  ,                                       !- Use Weather File Daylight Saving Period
  ,                                       !- Apply Weekend Holiday Rule
  ,                                       !- Use Weather File Rain Indicators
  ,                                       !- Use Weather File Snow Indicators
  ;                                       !- Number of Times Runperiod to be Repeated

OS:LifeCycleCost:Parameters,
  {4980ba51-69ec-4b67-a9a1-24913c2a5c4f}, !- Handle
  ,                                       !- Analysis Type
  ,                                       !- Discounting Convention
  ,                                       !- Inflation Approach
  ,                                       !- Real Discount Rate
  ,                                       !- Nominal Discount Rate
  ,                                       !- Inflation
  ,                                       !- Base Date Month
  ,                                       !- Base Date Year
  ,                                       !- Service Date Month
  ,                                       !- Service Date Year
  ;                                       !- Length of Study Period in Years

OS:YearDescription,
  {221389f6-2d91-498e-bdd1-49c468ffb332}, !- Handle
  2017,                                   !- Calendar Year
  ,                                       !- Day of Week for Start Day
  ;                                       !- Is Leap Year

OS:WeatherFile,
  {7cbddd2b-5b16-41cc-bb6a-6dbaea7eafa1}, !- Handle
  Buffalo Niagara Intl Ap,                !- City
  NY,                                     !- State Province Region
  USA,                                    !- Country
  TMY3,                                   !- Data Source
  725280,                                 !- WMO Number
  42.93,                                  !- Latitude {deg}
  -78.73,                                 !- Longitude {deg}
  -5,                                     !- Time Zone {hr}
  215,                                    !- Elevation {m}
  /Users/nlong/working/dissertation-analysis/dc/analysis/esbe/activity_3/coincident/weather/USA_NY_Buffalo-Greater.Buffalo.Intl.AP.725280_TMY3.epw, !- Url
  ;                                       !- Checksum

OS:Site:WaterMainsTemperature,
  {0b327bc1-9aee-430a-aae9-4c27120da7b0}, !- Handle
  Correlation,                            !- Calculation Method
  ,                                       !- Temperature Schedule Name
  8.96666666666667,                       !- Annual Average Outdoor Air Temperature {C}
  26.2;                                   !- Maximum Difference In Monthly Average Outdoor Air Temperatures {deltaC}

OS:SizingPeriod:DesignDay,
  {5e98ffb8-3d36-444d-8c57-2e2c9179ce1a}, !- Handle
  Buffalo Niagara Intl Ap Ann Clg .4% Condns DB=>MWB 1, !- Name
  30.3,                                   !- Maximum Dry-Bulb Temperature {C}
  9.3,                                    !- Daily Dry-Bulb Temperature Range {deltaC}
  98769,                                  !- Barometric Pressure {Pa}
  5.7,                                    !- Wind Speed {m/s}
  240,                                    !- Wind Direction {deg}
  ,                                       !- Sky Clearness
  No,                                     !- Rain Indicator
  No,                                     !- Snow Indicator
  21,                                     !- Day of Month
  7,                                      !- Month
  SummerDesignDay,                        !- Day Type
  No,                                     !- Daylight Saving Time Indicator
  Wetbulb,                                !- Humidity Condition Type
  ,                                       !- Humidity Condition Day Schedule Name
  21.8,                                   !- Wetbulb or DewPoint at Maximum Dry-Bulb {C}
  ,                                       !- Humidity Ratio at Maximum Dry-Bulb {kgWater/kgDryAir}
  ,                                       !- Enthalpy at Maximum Dry-Bulb {J/kg}
  DefaultMultipliers,                     !- Dry-Bulb Temperature Range Modifier Type
  ,                                       !- Dry-Bulb Temperature Range Modifier Day Schedule Name
  ASHRAETau,                              !- Solar Model Indicator
  ,                                       !- Beam Solar Day Schedule Name
  ,                                       !- Diffuse Solar Day Schedule Name
  0.462,                                  !- ASHRAE Clear Sky Optical Depth for Beam Irradiance {dimensionless}
  2.001;                                  !- ASHRAE Clear Sky Optical Depth for Diffuse Irradiance {dimensionless}

OS:SizingPeriod:DesignDay,
  {680019ce-3072-4475-9775-4347691c0c70}, !- Handle
  Buffalo Niagara Intl Ap Ann Clg .4% Condns WB=>MDB 1, !- Name
  27.8,                                   !- Maximum Dry-Bulb Temperature {C}
  9.3,                                    !- Daily Dry-Bulb Temperature Range {deltaC}
  98769,                                  !- Barometric Pressure {Pa}
  5.7,                                    !- Wind Speed {m/s}
  240,                                    !- Wind Direction {deg}
  ,                                       !- Sky Clearness
  No,                                     !- Rain Indicator
  No,                                     !- Snow Indicator
  21,                                     !- Day of Month
  7,                                      !- Month
  SummerDesignDay,                        !- Day Type
  No,                                     !- Daylight Saving Time Indicator
  Wetbulb,                                !- Humidity Condition Type
  ,                                       !- Humidity Condition Day Schedule Name
  23.8,                                   !- Wetbulb or DewPoint at Maximum Dry-Bulb {C}
  ,                                       !- Humidity Ratio at Maximum Dry-Bulb {kgWater/kgDryAir}
  ,                                       !- Enthalpy at Maximum Dry-Bulb {J/kg}
  DefaultMultipliers,                     !- Dry-Bulb Temperature Range Modifier Type
  ,                                       !- Dry-Bulb Temperature Range Modifier Day Schedule Name
  ASHRAETau,                              !- Solar Model Indicator
  ,                                       !- Beam Solar Day Schedule Name
  ,                                       !- Diffuse Solar Day Schedule Name
  0.462,                                  !- ASHRAE Clear Sky Optical Depth for Beam Irradiance {dimensionless}
  2.001;                                  !- ASHRAE Clear Sky Optical Depth for Diffuse Irradiance {dimensionless}

OS:SizingPeriod:DesignDay,
  {d728a68c-cdb5-436f-ae63-6d952b47c985}, !- Handle
  Buffalo Niagara Intl Ap Ann Htg 99.6% Condns DB 1, !- Name
  -16.3,                                  !- Maximum Dry-Bulb Temperature {C}
  0,                                      !- Daily Dry-Bulb Temperature Range {deltaC}
  98769,                                  !- Barometric Pressure {Pa}
  5.1,                                    !- Wind Speed {m/s}
  270,                                    !- Wind Direction {deg}
  0,                                      !- Sky Clearness
  No,                                     !- Rain Indicator
  No,                                     !- Snow Indicator
  21,                                     !- Day of Month
  1,                                      !- Month
  WinterDesignDay,                        !- Day Type
  No,                                     !- Daylight Saving Time Indicator
  Wetbulb,                                !- Humidity Condition Type
  ,                                       !- Humidity Condition Day Schedule Name
  -16.3,                                  !- Wetbulb or DewPoint at Maximum Dry-Bulb {C}
  ,                                       !- Humidity Ratio at Maximum Dry-Bulb {kgWater/kgDryAir}
  ,                                       !- Enthalpy at Maximum Dry-Bulb {J/kg}
  DefaultMultipliers,                     !- Dry-Bulb Temperature Range Modifier Type
  ,                                       !- Dry-Bulb Temperature Range Modifier Day Schedule Name
  ASHRAEClearSky;                         !- Solar Model Indicator

OS:ClimateZones,
  {c242532a-6bc6-41bd-a1e8-05096b44794c}, !- Handle
  ASHRAE,                                 !- Climate Zone Institution Name 1
  ANSI/ASHRAE Standard 169,               !- Climate Zone Document Name 1
  2006,                                   !- Climate Zone Document Year 1
  6A;                                     !- Climate Zone Value 1

OS:Rendering:Color,
  {9af47bd0-9ea7-477e-85f4-fcf90ec80344}, !- Handle
  SecondarySchool Kitchen,                !- Name
  78,                                     !- Rendering Red Value
  222,                                    !- Rendering Green Value
  133;                                    !- Rendering Blue Value

OS:Rendering:Color,
  {09405464-3df5-42cd-a1fe-70aaa8a6b74a}, !- Handle
  SecondarySchool Restroom,               !- Name
  169,                                    !- Rendering Red Value
  169,                                    !- Rendering Green Value
  31;                                     !- Rendering Blue Value

OS:Rendering:Color,
  {503ccba8-0ddd-41d6-80e5-d239ca17902f}, !- Handle
  SecondarySchool Lobby,                  !- Name
  230,                                    !- Rendering Red Value
  157,                                    !- Rendering Green Value
  120;                                    !- Rendering Blue Value

OS:Rendering:Color,
  {ea97e032-7179-4120-8c29-9d8d90f7eb0b}, !- Handle
  SecondarySchool Cafeteria,              !- Name
  31,                                     !- Rendering Red Value
  169,                                    !- Rendering Green Value
  34;                                     !- Rendering Blue Value

OS:Rendering:Color,
  {7d775396-9e72-4ee8-b1ed-7ac0177e8061}, !- Handle
  SecondarySchool Mechanical,             !- Name
  41,                                     !- Rendering Red Value
  31,                                     !- Rendering Green Value
  169;                                    !- Rendering Blue Value

OS:Rendering:Color,
  {8e540089-2004-4ace-91bf-ea7e0c1ca276}, !- Handle
  SecondarySchool Library,                !- Name
  230,                                    !- Rendering Red Value
  196,                                    !- Rendering Green Value
  120;                                    !- Rendering Blue Value

OS:Rendering:Color,
  {85789820-fd4a-4df4-85b2-5430e4ed02c4}, !- Handle
  SecondarySchool ComputerRoom,           !- Name
  120,                                    !- Rendering Red Value
  230,                                    !- Rendering Green Value
  199;                                    !- Rendering Blue Value

OS:Rendering:Color,
  {3f0b29a4-1603-469a-8443-f17cd3982b7b}, !- Handle
  SecondarySchool Auditorium,             !- Name
  230,                                    !- Rendering Red Value
  196,                                    !- Rendering Green Value
  120;                                    !- Rendering Blue Value

OS:Rendering:Color,
  {8c57aa1d-b3d6-4948-a8d8-da5a2bfb6a81}, !- Handle
  SecondarySchool Office,                 !- Name
  120,                                    !- Rendering Red Value
  230,                                    !- Rendering Green Value
  199;                                    !- Rendering Blue Value

OS:Rendering:Color,
  {f8381547-21d0-420d-9bac-447af25318d9}, !- Handle
  SecondarySchool Gym,                    !- Name
  154,                                    !- Rendering Red Value
  230,                                    !- Rendering Green Value
  120;                                    !- Rendering Blue Value

OS:Rendering:Color,
  {44968931-be81-42b6-bc78-ebcb64d3c50a}, !- Handle
  SecondarySchool Corridor,               !- Name
  169,                                    !- Rendering Red Value
  31,                                     !- Rendering Green Value
  31;                                     !- Rendering Blue Value

OS:Rendering:Color,
  {8755cfaa-e190-4aa2-8938-8529960bc2e2}, !- Handle
  SecondarySchool Classroom,              !- Name
  120,                                    !- Rendering Red Value
  230,                                    !- Rendering Green Value
  199;                                    !- Rendering Blue Value

OS:RunPeriodControl:DaylightSavingTime,
  {13290730-3b57-4a63-9eb5-02c1e0d498e5}, !- Handle
  2nd Sunday in March,                    !- Start Date
  1st Sunday in November;                 !- End Date

OS:People:Definition,
  {c8308a7c-ab23-45e3-b41e-9854c99cdb73}, !- Handle
  SecondarySchool Auditorium People Definition, !- Name
  People/Area,                            !- Number of People Calculation Method
  ,                                       !- Number of People {people}
  1.61458656250646,                       !- People per Space Floor Area {person/m2}
  ,                                       !- Space Floor Area per Person {m2/person}
  0.3,                                    !- Fraction Radiant
  ,                                       !- Sensible Heat Fraction
  ,                                       !- Carbon Dioxide Generation Rate {m3/s-W}
  Yes,                                    !- Enable ASHRAE 55 Comfort Warnings
  ZoneAveraged,                           !- Mean Radiant Temperature Calculation Type
  Fanger;                                 !- Thermal Comfort Model Type 1

OS:Schedule:Ruleset,
  {29a11068-ba09-49eb-9239-dcdecd55b527}, !- Handle
  Clothing Schedule,                      !- Name
  {7e4299da-ef91-4fec-983a-a380704f4fc5}, !- Schedule Type Limits Name
  {5d6a9291-7279-4e53-9d86-914f037c385d}; !- Default Day Schedule Name

OS:Schedule:Day,
  {5d6a9291-7279-4e53-9d86-914f037c385d}, !- Handle
  Clothing Schedule Default Winter Clothes, !- Name
  {7e4299da-ef91-4fec-983a-a380704f4fc5}, !- Schedule Type Limits Name
  ,                                       !- Interpolate to Timestep
  24,                                     !- Hour 1
  0,                                      !- Minute 1
  1;                                      !- Value Until Time 1

OS:Schedule:Rule,
  {dbbb00ac-6fab-4a34-9212-68f154811d2a}, !- Handle
  Schedule Rule 1,                        !- Name
  {29a11068-ba09-49eb-9239-dcdecd55b527}, !- Schedule Ruleset Name
  0,                                      !- Rule Order
  {10b120ff-c8ad-4cb4-8afb-05adb7005eb5}, !- Day Schedule Name
  ,                                       !- Apply Sunday
  ,                                       !- Apply Monday
  ,                                       !- Apply Tuesday
  ,                                       !- Apply Wednesday
  ,                                       !- Apply Thursday
  ,                                       !- Apply Friday
  ,                                       !- Apply Saturday
  DateRange,                              !- Date Specification Type
  5,                                      !- Start Month
  1,                                      !- Start Day
  9,                                      !- End Month
  30;                                     !- End Day

OS:Schedule:Day,
  {10b120ff-c8ad-4cb4-8afb-05adb7005eb5}, !- Handle
  Clothing Schedule Summer Clothes,       !- Name
  {7e4299da-ef91-4fec-983a-a380704f4fc5}, !- Schedule Type Limits Name
  ,                                       !- Interpolate to Timestep
  24,                                     !- Hour 1
  0,                                      !- Minute 1
  0.5;                                    !- Value Until Time 1

OS:ScheduleTypeLimits,
  {7e4299da-ef91-4fec-983a-a380704f4fc5}, !- Handle
  ClothingInsulation,                     !- Name
  0,                                      !- Lower Limit Value
  ,                                       !- Upper Limit Value
  Continuous,                             !- Numeric Type
  ClothingInsulation;                     !- Unit Type

OS:Schedule:Ruleset,
  {511cd18f-d927-4227-a52a-036abfc6d81f}, !- Handle
  Air Velocity Schedule,                  !- Name
  {15abf398-57aa-4326-9636-52554d5350e5}, !- Schedule Type Limits Name
  {7732df1a-8f84-45cc-9b59-fdc630080b8b}; !- Default Day Schedule Name

OS:Schedule:Day,
  {7732df1a-8f84-45cc-9b59-fdc630080b8b}, !- Handle
  Air Velocity Schedule Default,          !- Name
  {15abf398-57aa-4326-9636-52554d5350e5}, !- Schedule Type Limits Name
  ,                                       !- Interpolate to Timestep
  24,                                     !- Hour 1
  0,                                      !- Minute 1
  0.2;                                    !- Value Until Time 1

OS:ScheduleTypeLimits,
  {15abf398-57aa-4326-9636-52554d5350e5}, !- Handle
  Velocity,                               !- Name
  0,                                      !- Lower Limit Value
  ,                                       !- Upper Limit Value
  Continuous,                             !- Numeric Type
  Velocity;                               !- Unit Type

OS:Schedule:Ruleset,
  {bbd1a948-bc5e-4998-b92c-196249ca2a19}, !- Handle
  Work Efficiency Schedule,               !- Name
  {15a114fd-94f5-4d31-9df6-48b63586f29f}, !- Schedule Type Limits Name
  {589ee708-895e-436f-b513-9b946e35a1c5}; !- Default Day Schedule Name

OS:Schedule:Day,
  {589ee708-895e-436f-b513-9b946e35a1c5}, !- Handle
  Work Efficiency Schedule Default,       !- Name
  {15a114fd-94f5-4d31-9df6-48b63586f29f}, !- Schedule Type Limits Name
  ,                                       !- Interpolate to Timestep
  24,                                     !- Hour 1
  0,                                      !- Minute 1
  0;                                      !- Value Until Time 1

OS:ScheduleTypeLimits,
  {15a114fd-94f5-4d31-9df6-48b63586f29f}, !- Handle
  Fractional,                             !- Name
  0,                                      !- Lower Limit Value
  1,                                      !- Upper Limit Value
  Continuous;                             !- Numeric Type

OS:Lights:Definition,
  {70afa1f3-c289-47e5-b6ff-8be626420bf3}, !- Handle
  SecondarySchool Auditorium Lights Definition, !- Name
  Watts/Area,                             !- Design Level Calculation Method
  ,                                       !- Lighting Level {W}
  6.78126356252712,                       !- Watts per Space Floor Area {W/m2}
  ,                                       !- Watts per Person {W/person}
  0.37,                                   !- Fraction Radiant
  0.2,                                    !- Fraction Visible
  0;                                      !- Return Air Fraction

OS:AdditionalProperties,
  {749cf538-3279-4e40-879a-a14853f672ea}, !- Handle
  {70afa1f3-c289-47e5-b6ff-8be626420bf3}, !- Object Name
  lpd_fraction_linear_fluorescent,        !- Feature Name 1
  Double,                                 !- Feature Data Type 1
  1;                                      !- Feature Value 1

OS:ElectricEquipment:Definition,
  {c764786d-aa7a-480a-8415-6fafa520e144}, !- Handle
  SecondarySchool Auditorium Elec Equip Definition, !- Name
  Watts/Area,                             !- Design Level Calculation Method
  ,                                       !- Design Level {W}
  4.95139879168647,                       !- Watts per Space Floor Area {W/m2}
  ,                                       !- Watts per Person {W/person}
  0,                                      !- Fraction Latent
  0.5,                                    !- Fraction Radiant
  0;                                      !- Fraction Lost

OS:DesignSpecification:OutdoorAir,
  {8f9e5eab-a584-4c21-9cff-a370ccb5e1c3}, !- Handle
  SecondarySchool Auditorium Ventilation, !- Name
  Sum,                                    !- Outdoor Air Method
  0.002359737216,                         !- Outdoor Air Flow per Person {m3/s-person}
  0.0003048,                              !- Outdoor Air Flow per Floor Area {m3/s-m2}
  ,                                       !- Outdoor Air Flow Rate {m3/s}
  ,                                       !- Outdoor Air Flow Air Changes per Hour {1/hr}
  ;                                       !- Outdoor Air Flow Rate Fraction Schedule Name

OS:DefaultScheduleSet,
  {043a2c6d-8345-4caa-8a0b-c94b85d77b63}, !- Handle
  SecondarySchool Auditorium Schedule Set, !- Name
  ,                                       !- Hours of Operation Schedule Name
  {613952de-5782-4b94-bd25-065cdef339f8}, !- Number of People Schedule Name
  {0d06fff4-76f4-49e8-96bb-6e8ce5b9db89}, !- People Activity Level Schedule Name
  {e2d25277-4bb4-46ba-8131-7bf599c2cffe}, !- Lighting Schedule Name
  {1114aa5c-e97a-4af8-87e7-21796d768a6f}, !- Electric Equipment Schedule Name
  ,                                       !- Gas Equipment Schedule Name
  ,                                       !- Hot Water Equipment Schedule Name
  {022f811e-9e0d-4633-a924-a5120d7b6ae1}, !- Infiltration Schedule Name
  ,                                       !- Steam Equipment Schedule Name
  ;                                       !- Other Equipment Schedule Name

OS:Schedule:Ruleset,
  {613952de-5782-4b94-bd25-065cdef339f8}, !- Handle
  SchoolSecondary BLDG_OCC_SCH_Auditorium, !- Name
  {15a114fd-94f5-4d31-9df6-48b63586f29f}, !- Schedule Type Limits Name
  {79d9e123-e997-47c8-a381-7632ec320ba1}, !- Default Day Schedule Name
  {d142d089-a880-4d98-9c95-1f8927480d41}, !- Summer Design Day Schedule Name
  {2555f257-c610-4d80-ae26-8b299a3d4955}; !- Winter Design Day Schedule Name

OS:Schedule:Day,
  {79d9e123-e997-47c8-a381-7632ec320ba1}, !- Handle
  SchoolSecondary BLDG_OCC_SCH_Auditorium Default, !- Name
  {15a114fd-94f5-4d31-9df6-48b63586f29f}, !- Schedule Type Limits Name
  Yes,                                    !- Interpolate to Timestep
  8,                                      !- Hour 1
  0,                                      !- Minute 1
  0,                                      !- Value Until Time 1
  24,                                     !- Hour 2
  0,                                      !- Minute 2
  0;                                      !- Value Until Time 2

OS:Schedule:Day,
  {2555f257-c610-4d80-ae26-8b299a3d4955}, !- Handle
  SchoolSecondary BLDG_OCC_SCH_Auditorium Winter Design Day, !- Name
  {15a114fd-94f5-4d31-9df6-48b63586f29f}, !- Schedule Type Limits Name
  ,                                       !- Interpolate to Timestep
  24,                                     !- Hour 1
  0,                                      !- Minute 1
  0;                                      !- Value Until Time 1

OS:Schedule:Rule,
  {cf62c825-8d6c-412d-bd3e-8602accf61a8}, !- Handle
  Schedule Rule 2,                        !- Name
  {613952de-5782-4b94-bd25-065cdef339f8}, !- Schedule Ruleset Name
  4,                                      !- Rule Order
  {e52b5e62-062f-4307-8f69-3050868753e3}, !- Day Schedule Name
  ,                                       !- Apply Sunday
  Yes,                                    !- Apply Monday
  Yes,                                    !- Apply Tuesday
  Yes,                                    !- Apply Wednesday
  Yes,                                    !- Apply Thursday
  Yes,                                    !- Apply Friday
  ,                                       !- Apply Saturday
  DateRange,                              !- Date Specification Type
  1,                                      !- Start Month
  1,                                      !- Start Day
  6,                                      !- End Month
  30;                                     !- End Day

OS:Schedule:Day,
  {e52b5e62-062f-4307-8f69-3050868753e3}, !- Handle
  SchoolSecondary BLDG_OCC_SCH_Auditorium Wkdy|SmrDsn Day, !- Name
  {15a114fd-94f5-4d31-9df6-48b63586f29f}, !- Schedule Type Limits Name
  Yes,                                    !- Interpolate to Timestep
  6,                                      !- Hour 1
  0,                                      !- Minute 1
  0,                                      !- Value Until Time 1
  7,                                      !- Hour 2
  0,                                      !- Minute 2
  0.0625,                                 !- Value Until Time 2
  8,                                      !- Hour 3
  0,                                      !- Minute 3
  0.125,                                  !- Value Until Time 3
  9,                                      !- Hour 4
  0,                                      !- Minute 4
  0.1875,                                 !- Value Until Time 4
  10,                                     !- Hour 5
  0,                                      !- Minute 5
  0.25,                                   !- Value Until Time 5
  10,                                     !- Hour 6
  30,                                     !- Minute 6
  0.25,                                   !- Value Until Time 6
  11,                                     !- Hour 7
  30,                                     !- Minute 7
  0.465384615384615,                      !- Value Until Time 7
  12,                                     !- Hour 8
  30,                                     !- Minute 8
  0.680769230769231,                      !- Value Until Time 8
  13,                                     !- Hour 9
  30,                                     !- Minute 9
  0.896153846153846,                      !- Value Until Time 9
  13,                                     !- Hour 10
  45,                                     !- Minute 10
  0.95,                                   !- Value Until Time 10
  14,                                     !- Hour 11
  45,                                     !- Minute 11
  0.657692307692308,                      !- Value Until Time 11
  15,                                     !- Hour 12
  45,                                     !- Minute 12
  0.365384615384615,                      !- Value Until Time 12
  16,                                     !- Hour 13
  45,                                     !- Minute 13
  0.0730769230769231,                     !- Value Until Time 13
  17,                                     !- Hour 14
  0,                                      !- Minute 14
  0,                                      !- Value Until Time 14
  24,                                     !- Hour 15
  0,                                      !- Minute 15